BEGIN Configuration File: ../../IL2236_project/verify/figure2/VAL/mesh88_lat
// $Id$

// Copyright (c) 2007-2015, Trustees of The Leland Stanford Junior University
// All rights reserved.
//
// Redistribution and use in source and binary forms, with or without
// modification, are permitted provided that the following conditions are met:
//
// Redistributions of source code must retain the above copyright notice, this
// list of conditions and the following disclaimer.
// Redistributions in binary form must reproduce the above copyright notice,
// this list of conditions and the following disclaimer in the documentation
// and/or other materials provided with the distribution.
//
// THIS SOFTWARE IS PROVIDED BY THE COPYRIGHT HOLDERS AND CONTRIBUTORS "AS IS"
// AND ANY EXPRESS OR IMPLIED WARRANTIES, INCLUDING, BUT NOT LIMITED TO, THE
// IMPLIED WARRANTIES OF MERCHANTABILITY AND FITNESS FOR A PARTICULAR PURPOSE
// ARE DISCLAIMED. IN NO EVENT SHALL THE COPYRIGHT OWNER OR CONTRIBUTORS BE
// LIABLE FOR ANY DIRECT, INDIRECT, INCIDENTAL, SPECIAL, EXEMPLARY, OR
// CONSEQUENTIAL DAMAGES (INCLUDING, BUT NOT LIMITED TO, PROCUREMENT OF
// SUBSTITUTE GOODS OR SERVICES; LOSS OF USE, DATA, OR PROFITS; OR BUSINESS
// INTERRUPTION) HOWEVER CAUSED AND ON ANY THEORY OF LIABILITY, WHETHER IN
// CONTRACT, STRICT LIABILITY, OR TORT (INCLUDING NEGLIGENCE OR OTHERWISE)
// ARISING IN ANY WAY OUT OF THE USE OF THIS SOFTWARE, EVEN IF ADVISED OF THE
// POSSIBILITY OF SUCH DAMAGE.

//8X8 mesh with 20 flits per packet under injection mode
//injection rate here is packet per cycle, NOT flit per cycle

// Topology

topology = mesh;
k = 8;
n = 2;

// Routing
routing_function = valiant;

// Flow control
num_vcs     = 8;
vc_buf_size = 8;
wait_for_tail_credit = 1;

// Router architecture
vc_allocator = islip;
sw_allocator = islip;
alloc_iters  = 1;

credit_delay   = 2;
routing_delay  = 0;
vc_alloc_delay = 1;
sw_alloc_delay = 1;

input_speedup     = 2;
output_speedup    = 1;
internal_speedup  = 1.0;


// Traffic
traffic = transpose;
packet_size = 20;


// Simulation
sim_type = latency;

injection_rate = .0005;


END Configuration File: ../../IL2236_project/verify/figure2/VAL/mesh88_lat
Class 0:
Packet latency average = 71.7727
	minimum = 41
	maximum = 137
Network latency average = 71.7727
	minimum = 41
	maximum = 137
Slowest packet = 6
Flit latency average = 52.0295
	minimum = 22
	maximum = 118
Slowest flit = 120
Fragmentation average = 1.31818
	minimum = 0
	maximum = 16
Injected packet rate average = 0.000359375
	minimum = 0 (at node 1)
	maximum = 0.002 (at node 2)
Accepted packet rate average = 0.00034375
	minimum = 0 (at node 1)
	maximum = 0.002 (at node 9)
Injected flit rate average = 0.007
	minimum = 0 (at node 1)
	maximum = 0.04 (at node 9)
Accepted flit rate average= 0.006875
	minimum = 0 (at node 1)
	maximum = 0.04 (at node 9)
Injected packet length average = 19.4783
Accepted packet length average = 20
Total in-flight flits = 20 (0 measured)
latency change    = 1
throughput change = 1
Class 0:
Packet latency average = 69.6852
	minimum = 33
	maximum = 137
Network latency average = 69.6852
	minimum = 33
	maximum = 137
Slowest packet = 6
Flit latency average = 50.3542
	minimum = 14
	maximum = 118
Slowest flit = 120
Fragmentation average = 0.537037
	minimum = 0
	maximum = 16
Injected packet rate average = 0.000429688
	minimum = 0 (at node 1)
	maximum = 0.0015 (at node 2)
Accepted packet rate average = 0.000421875
	minimum = 0 (at node 3)
	maximum = 0.0015 (at node 4)
Injected flit rate average = 0.00859375
	minimum = 0 (at node 1)
	maximum = 0.03 (at node 2)
Accepted flit rate average= 0.00849219
	minimum = 0 (at node 3)
	maximum = 0.03 (at node 4)
Injected packet length average = 20
Accepted packet length average = 20.1296
Total in-flight flits = 13 (0 measured)
latency change    = 0.0299568
throughput change = 0.190432
Class 0:
Packet latency average = 70.6875
	minimum = 41
	maximum = 115
Network latency average = 70.6875
	minimum = 41
	maximum = 115
Slowest packet = 78
Flit latency average = 49.5466
	minimum = 22
	maximum = 96
Slowest flit = 1579
Fragmentation average = 3.40625
	minimum = 0
	maximum = 16
Injected packet rate average = 0.000484375
	minimum = 0 (at node 0)
	maximum = 0.004 (at node 1)
Accepted packet rate average = 0.0005
	minimum = 0 (at node 0)
	maximum = 0.004 (at node 8)
Injected flit rate average = 0.0096875
	minimum = 0 (at node 0)
	maximum = 0.08 (at node 1)
Accepted flit rate average= 0.00989063
	minimum = 0 (at node 0)
	maximum = 0.08 (at node 8)
Injected packet length average = 20
Accepted packet length average = 19.7812
Total in-flight flits = 0 (0 measured)
latency change    = 0.0141795
throughput change = 0.14139
Warmed up ...Time used is 3000 cycles
Class 0:
Packet latency average = 65.7
	minimum = 33
	maximum = 121
Network latency average = 65.4667
	minimum = 33
	maximum = 121
Slowest packet = 102
Flit latency average = 46.1598
	minimum = 14
	maximum = 102
Slowest flit = 2040
Fragmentation average = 1
	minimum = 0
	maximum = 15
Injected packet rate average = 0.0005
	minimum = 0 (at node 0)
	maximum = 0.004 (at node 43)
Accepted packet rate average = 0.00046875
	minimum = 0 (at node 0)
	maximum = 0.004 (at node 29)
Injected flit rate average = 0.00992188
	minimum = 0 (at node 0)
	maximum = 0.08 (at node 43)
Accepted flit rate average= 0.00948437
	minimum = 0 (at node 0)
	maximum = 0.08 (at node 29)
Injected packet length average = 19.8438
Accepted packet length average = 20.2333
Total in-flight flits = 33 (33 measured)
latency change    = 0.0759132
throughput change = 0.0428336
Class 0:
Packet latency average = 67.6182
	minimum = 33
	maximum = 121
Network latency average = 67.4909
	minimum = 33
	maximum = 121
Slowest packet = 102
Flit latency average = 47.9255
	minimum = 14
	maximum = 102
Slowest flit = 2040
Fragmentation average = 0.890909
	minimum = 0
	maximum = 15
Injected packet rate average = 0.0004375
	minimum = 0 (at node 0)
	maximum = 0.0025 (at node 43)
Accepted packet rate average = 0.000429688
	minimum = 0 (at node 0)
	maximum = 0.0025 (at node 29)
Injected flit rate average = 0.00865625
	minimum = 0 (at node 0)
	maximum = 0.05 (at node 43)
Accepted flit rate average= 0.00859375
	minimum = 0 (at node 0)
	maximum = 0.05 (at node 29)
Injected packet length average = 19.7857
Accepted packet length average = 20
Total in-flight flits = 20 (20 measured)
latency change    = 0.0283678
throughput change = 0.103636
Class 0:
Packet latency average = 65.9167
	minimum = 33
	maximum = 121
Network latency average = 65.8333
	minimum = 33
	maximum = 121
Slowest packet = 102
Flit latency average = 46.194
	minimum = 14
	maximum = 102
Slowest flit = 2040
Fragmentation average = 0.928571
	minimum = 0
	maximum = 15
Injected packet rate average = 0.000442708
	minimum = 0 (at node 0)
	maximum = 0.002 (at node 43)
Accepted packet rate average = 0.0004375
	minimum = 0 (at node 0)
	maximum = 0.002 (at node 29)
Injected flit rate average = 0.00885417
	minimum = 0 (at node 0)
	maximum = 0.04 (at node 43)
Accepted flit rate average= 0.00878125
	minimum = 0 (at node 0)
	maximum = 0.04 (at node 29)
Injected packet length average = 20
Accepted packet length average = 20.0714
Total in-flight flits = 14 (14 measured)
latency change    = 0.0258131
throughput change = 0.0213523
Class 0:
Packet latency average = 65.5
	minimum = 25
	maximum = 121
Network latency average = 65.3304
	minimum = 25
	maximum = 121
Slowest packet = 102
Flit latency average = 45.6882
	minimum = 6
	maximum = 102
Slowest flit = 2040
Fragmentation average = 0.830357
	minimum = 0
	maximum = 15
Injected packet rate average = 0.000449219
	minimum = 0 (at node 0)
	maximum = 0.0015 (at node 5)
Accepted packet rate average = 0.0004375
	minimum = 0 (at node 0)
	maximum = 0.0015 (at node 29)
Injected flit rate average = 0.00898437
	minimum = 0 (at node 0)
	maximum = 0.03 (at node 5)
Accepted flit rate average= 0.00887109
	minimum = 0 (at node 0)
	maximum = 0.03 (at node 29)
Injected packet length average = 20
Accepted packet length average = 20.2768
Total in-flight flits = 29 (29 measured)
latency change    = 0.00636132
throughput change = 0.0101277
Class 0:
Packet latency average = 67.5133
	minimum = 25
	maximum = 134
Network latency average = 67.26
	minimum = 25
	maximum = 134
Slowest packet = 214
Flit latency average = 47.2423
	minimum = 6
	maximum = 115
Slowest flit = 4299
Fragmentation average = 1.65333
	minimum = 0
	maximum = 28
Injected packet rate average = 0.000475
	minimum = 0 (at node 0)
	maximum = 0.0014 (at node 22)
Accepted packet rate average = 0.00046875
	minimum = 0 (at node 0)
	maximum = 0.0014 (at node 50)
Injected flit rate average = 0.00944062
	minimum = 0 (at node 0)
	maximum = 0.028 (at node 22)
Accepted flit rate average= 0.009375
	minimum = 0 (at node 0)
	maximum = 0.028 (at node 50)
Injected packet length average = 19.875
Accepted packet length average = 20
Total in-flight flits = 40 (40 measured)
latency change    = 0.0298213
throughput change = 0.05375
Class 0:
Packet latency average = 67.3696
	minimum = 25
	maximum = 134
Network latency average = 67.163
	minimum = 25
	maximum = 134
Slowest packet = 214
Flit latency average = 47.2051
	minimum = 6
	maximum = 115
Slowest flit = 4299
Fragmentation average = 1.53804
	minimum = 0
	maximum = 28
Injected packet rate average = 0.000489583
	minimum = 0 (at node 0)
	maximum = 0.0015 (at node 36)
Accepted packet rate average = 0.000479167
	minimum = 0 (at node 0)
	maximum = 0.0015 (at node 36)
Injected flit rate average = 0.00979167
	minimum = 0 (at node 0)
	maximum = 0.03 (at node 36)
Accepted flit rate average= 0.00966406
	minimum = 0 (at node 0)
	maximum = 0.03 (at node 36)
Injected packet length average = 20
Accepted packet length average = 20.1685
Total in-flight flits = 49 (49 measured)
latency change    = 0.00213402
throughput change = 0.0299111
Class 0:
Packet latency average = 67.684
	minimum = 25
	maximum = 134
Network latency average = 67.5047
	minimum = 25
	maximum = 134
Slowest packet = 214
Flit latency average = 47.5951
	minimum = 6
	maximum = 115
Slowest flit = 4299
Fragmentation average = 1.43396
	minimum = 0
	maximum = 28
Injected packet rate average = 0.000482143
	minimum = 0 (at node 0)
	maximum = 0.00142857 (at node 44)
Accepted packet rate average = 0.000473214
	minimum = 0 (at node 0)
	maximum = 0.00142857 (at node 37)
Injected flit rate average = 0.00957589
	minimum = 0 (at node 0)
	maximum = 0.0285714 (at node 44)
Accepted flit rate average= 0.00946652
	minimum = 0 (at node 0)
	maximum = 0.0285714 (at node 37)
Injected packet length average = 19.8611
Accepted packet length average = 20.0047
Total in-flight flits = 79 (79 measured)
latency change    = 0.00464507
throughput change = 0.0208677
Draining all recorded packets ...
Draining remaining packets ...
Time taken is 10150 cycles
====== Overall Traffic Statistics ======
====== Traffic class 0 ======
Packet latency average = 67.6713 (1 samples)
	minimum = 25 (1 samples)
	maximum = 134 (1 samples)
Network latency average = 67.4954 (1 samples)
	minimum = 25 (1 samples)
	maximum = 134 (1 samples)
Flit latency average = 47.5427 (1 samples)
	minimum = 6 (1 samples)
	maximum = 115 (1 samples)
Fragmentation average = 1.40741 (1 samples)
	minimum = 0 (1 samples)
	maximum = 28 (1 samples)
Injected packet rate average = 0.000482143 (1 samples)
	minimum = 0 (1 samples)
	maximum = 0.00142857 (1 samples)
Accepted packet rate average = 0.000473214 (1 samples)
	minimum = 0 (1 samples)
	maximum = 0.00142857 (1 samples)
Injected flit rate average = 0.00957589 (1 samples)
	minimum = 0 (1 samples)
	maximum = 0.0285714 (1 samples)
Accepted flit rate average = 0.00946652 (1 samples)
	minimum = 0 (1 samples)
	maximum = 0.0285714 (1 samples)
Injected packet size average = 19.8611 (1 samples)
Accepted packet size average = 20.0047 (1 samples)
Hops average = 11.2685 (1 samples)
Total run time 1.03475
