BEGIN Configuration File: ../../IL2236_project/verify/figure2/VAL/mesh88_lat
// $Id$

// Copyright (c) 2007-2015, Trustees of The Leland Stanford Junior University
// All rights reserved.
//
// Redistribution and use in source and binary forms, with or without
// modification, are permitted provided that the following conditions are met:
//
// Redistributions of source code must retain the above copyright notice, this
// list of conditions and the following disclaimer.
// Redistributions in binary form must reproduce the above copyright notice,
// this list of conditions and the following disclaimer in the documentation
// and/or other materials provided with the distribution.
//
// THIS SOFTWARE IS PROVIDED BY THE COPYRIGHT HOLDERS AND CONTRIBUTORS "AS IS"
// AND ANY EXPRESS OR IMPLIED WARRANTIES, INCLUDING, BUT NOT LIMITED TO, THE
// IMPLIED WARRANTIES OF MERCHANTABILITY AND FITNESS FOR A PARTICULAR PURPOSE
// ARE DISCLAIMED. IN NO EVENT SHALL THE COPYRIGHT OWNER OR CONTRIBUTORS BE
// LIABLE FOR ANY DIRECT, INDIRECT, INCIDENTAL, SPECIAL, EXEMPLARY, OR
// CONSEQUENTIAL DAMAGES (INCLUDING, BUT NOT LIMITED TO, PROCUREMENT OF
// SUBSTITUTE GOODS OR SERVICES; LOSS OF USE, DATA, OR PROFITS; OR BUSINESS
// INTERRUPTION) HOWEVER CAUSED AND ON ANY THEORY OF LIABILITY, WHETHER IN
// CONTRACT, STRICT LIABILITY, OR TORT (INCLUDING NEGLIGENCE OR OTHERWISE)
// ARISING IN ANY WAY OUT OF THE USE OF THIS SOFTWARE, EVEN IF ADVISED OF THE
// POSSIBILITY OF SUCH DAMAGE.

//8X8 mesh with 20 flits per packet under injection mode
//injection rate here is packet per cycle, NOT flit per cycle

// Topology

topology = mesh;
k = 8;
n = 2;

// Routing
routing_function = valiant;

// Flow control
num_vcs     = 8;
vc_buf_size = 8;
wait_for_tail_credit = 1;

// Router architecture
vc_allocator = islip;
sw_allocator = islip;
alloc_iters  = 1;

credit_delay   = 2;
routing_delay  = 0;
vc_alloc_delay = 1;
sw_alloc_delay = 1;

input_speedup     = 2;
output_speedup    = 1;
internal_speedup  = 1.0;


// Traffic
traffic = transpose;
packet_size = 20;


// Simulation
sim_type = latency;

injection_rate = .0020;


END Configuration File: ../../IL2236_project/verify/figure2/VAL/mesh88_lat
Class 0:
Packet latency average = 78.5089
	minimum = 33
	maximum = 141
Network latency average = 78.0536
	minimum = 33
	maximum = 141
Slowest packet = 25
Flit latency average = 54.0714
	minimum = 14
	maximum = 122
Slowest flit = 519
Fragmentation average = 8.75
	minimum = 0
	maximum = 43
Injected packet rate average = 0.0018125
	minimum = 0 (at node 9)
	maximum = 0.006 (at node 47)
Accepted packet rate average = 0.00175
	minimum = 0 (at node 7)
	maximum = 0.006 (at node 61)
Injected flit rate average = 0.035875
	minimum = 0 (at node 9)
	maximum = 0.12 (at node 47)
Accepted flit rate average= 0.035
	minimum = 0 (at node 7)
	maximum = 0.12 (at node 61)
Injected packet length average = 19.7931
Accepted packet length average = 20
Total in-flight flits = 80 (0 measured)
latency change    = 1
throughput change = 1
Class 0:
Packet latency average = 75.6293
	minimum = 33
	maximum = 141
Network latency average = 75.0259
	minimum = 33
	maximum = 141
Slowest packet = 25
Flit latency average = 51.9167
	minimum = 14
	maximum = 122
Slowest flit = 519
Fragmentation average = 7.03017
	minimum = 0
	maximum = 43
Injected packet rate average = 0.00189062
	minimum = 0 (at node 9)
	maximum = 0.0045 (at node 52)
Accepted packet rate average = 0.0018125
	minimum = 0 (at node 9)
	maximum = 0.0045 (at node 38)
Injected flit rate average = 0.0377422
	minimum = 0 (at node 9)
	maximum = 0.09 (at node 52)
Accepted flit rate average= 0.0365703
	minimum = 0 (at node 9)
	maximum = 0.09 (at node 38)
Injected packet length average = 19.9628
Accepted packet length average = 20.1767
Total in-flight flits = 159 (0 measured)
latency change    = 0.0380754
throughput change = 0.0429395
Class 0:
Packet latency average = 78.8293
	minimum = 33
	maximum = 126
Network latency average = 78.4065
	minimum = 33
	maximum = 126
Slowest packet = 290
Flit latency average = 52.3059
	minimum = 14
	maximum = 106
Slowest flit = 4591
Fragmentation average = 11.9837
	minimum = 0
	maximum = 51
Injected packet rate average = 0.00190625
	minimum = 0 (at node 5)
	maximum = 0.006 (at node 17)
Accepted packet rate average = 0.00192187
	minimum = 0 (at node 4)
	maximum = 0.005 (at node 5)
Injected flit rate average = 0.0379219
	minimum = 0 (at node 5)
	maximum = 0.12 (at node 17)
Accepted flit rate average= 0.0379063
	minimum = 0 (at node 4)
	maximum = 0.103 (at node 10)
Injected packet length average = 19.8934
Accepted packet length average = 19.7236
Total in-flight flits = 173 (0 measured)
latency change    = 0.0405935
throughput change = 0.0352432
Warmed up ...Time used is 3000 cycles
Class 0:
Packet latency average = 77.686
	minimum = 33
	maximum = 136
Network latency average = 76.8182
	minimum = 33
	maximum = 136
Slowest packet = 471
Flit latency average = 53.144
	minimum = 14
	maximum = 124
Slowest flit = 7055
Fragmentation average = 9.43802
	minimum = 0
	maximum = 54
Injected packet rate average = 0.00209375
	minimum = 0 (at node 7)
	maximum = 0.006 (at node 12)
Accepted packet rate average = 0.00203125
	minimum = 0 (at node 4)
	maximum = 0.006 (at node 42)
Injected flit rate average = 0.0421094
	minimum = 0 (at node 7)
	maximum = 0.12 (at node 12)
Accepted flit rate average= 0.0416719
	minimum = 0 (at node 12)
	maximum = 0.12 (at node 42)
Injected packet length average = 20.1119
Accepted packet length average = 20.5154
Total in-flight flits = 186 (186 measured)
latency change    = 0.0147172
throughput change = 0.0903637
Class 0:
Packet latency average = 76.6907
	minimum = 33
	maximum = 148
Network latency average = 76.1186
	minimum = 33
	maximum = 148
Slowest packet = 577
Flit latency average = 52.5352
	minimum = 14
	maximum = 129
Slowest flit = 11559
Fragmentation average = 8.98729
	minimum = 0
	maximum = 54
Injected packet rate average = 0.00190625
	minimum = 0 (at node 61)
	maximum = 0.005 (at node 47)
Accepted packet rate average = 0.00191406
	minimum = 0 (at node 12)
	maximum = 0.005 (at node 61)
Injected flit rate average = 0.0380938
	minimum = 0 (at node 61)
	maximum = 0.093 (at node 47)
Accepted flit rate average= 0.0383594
	minimum = 0 (at node 47)
	maximum = 0.1 (at node 61)
Injected packet length average = 19.9836
Accepted packet length average = 20.0408
Total in-flight flits = 143 (143 measured)
latency change    = 0.0129778
throughput change = 0.0863544
Class 0:
Packet latency average = 77.2869
	minimum = 33
	maximum = 148
Network latency average = 76.6992
	minimum = 33
	maximum = 148
Slowest packet = 577
Flit latency average = 52.9848
	minimum = 14
	maximum = 129
Slowest flit = 11559
Fragmentation average = 8.87187
	minimum = 0
	maximum = 54
Injected packet rate average = 0.00190104
	minimum = 0 (at node 61)
	maximum = 0.004 (at node 47)
Accepted packet rate average = 0.00191667
	minimum = 0 (at node 47)
	maximum = 0.00433333 (at node 61)
Injected flit rate average = 0.038099
	minimum = 0 (at node 61)
	maximum = 0.08 (at node 47)
Accepted flit rate average= 0.0383333
	minimum = 0 (at node 47)
	maximum = 0.0866667 (at node 61)
Injected packet length average = 20.0411
Accepted packet length average = 20
Total in-flight flits = 113 (113 measured)
latency change    = 0.0077145
throughput change = 0.000679348
Class 0:
Packet latency average = 77.0701
	minimum = 33
	maximum = 148
Network latency average = 76.433
	minimum = 33
	maximum = 148
Slowest packet = 577
Flit latency average = 52.5673
	minimum = 14
	maximum = 129
Slowest flit = 11559
Fragmentation average = 8.93196
	minimum = 0
	maximum = 54
Injected packet rate average = 0.00193359
	minimum = 0.00025 (at node 33)
	maximum = 0.00375 (at node 40)
Accepted packet rate average = 0.00192969
	minimum = 0.00025 (at node 12)
	maximum = 0.004 (at node 61)
Injected flit rate average = 0.0386523
	minimum = 0.005 (at node 33)
	maximum = 0.075 (at node 40)
Accepted flit rate average= 0.0388672
	minimum = 0.005 (at node 12)
	maximum = 0.08 (at node 61)
Injected packet length average = 19.9899
Accepted packet length average = 20.1417
Total in-flight flits = 123 (123 measured)
latency change    = 0.00281309
throughput change = 0.0137353
Class 0:
Packet latency average = 77.7536
	minimum = 33
	maximum = 165
Network latency average = 77.1588
	minimum = 33
	maximum = 165
Slowest packet = 906
Flit latency average = 52.9174
	minimum = 14
	maximum = 146
Slowest flit = 18139
Fragmentation average = 9.54781
	minimum = 0
	maximum = 66
Injected packet rate average = 0.0019625
	minimum = 0.0002 (at node 33)
	maximum = 0.0034 (at node 40)
Accepted packet rate average = 0.00195625
	minimum = 0.0002 (at node 12)
	maximum = 0.0034 (at node 5)
Injected flit rate average = 0.0392875
	minimum = 0.004 (at node 33)
	maximum = 0.068 (at node 40)
Accepted flit rate average= 0.0393375
	minimum = 0.004 (at node 12)
	maximum = 0.068 (at node 5)
Injected packet length average = 20.0191
Accepted packet length average = 20.1086
Total in-flight flits = 145 (145 measured)
latency change    = 0.00879115
throughput change = 0.0119558
Draining all recorded packets ...
Draining remaining packets ...
Time taken is 8143 cycles
====== Overall Traffic Statistics ======
====== Traffic class 0 ======
Packet latency average = 77.6688 (1 samples)
	minimum = 33 (1 samples)
	maximum = 165 (1 samples)
Network latency average = 77.0844 (1 samples)
	minimum = 33 (1 samples)
	maximum = 165 (1 samples)
Flit latency average = 52.9543 (1 samples)
	minimum = 14 (1 samples)
	maximum = 146 (1 samples)
Fragmentation average = 9.53981 (1 samples)
	minimum = 0 (1 samples)
	maximum = 66 (1 samples)
Injected packet rate average = 0.0019625 (1 samples)
	minimum = 0.0002 (1 samples)
	maximum = 0.0034 (1 samples)
Accepted packet rate average = 0.00195625 (1 samples)
	minimum = 0.0002 (1 samples)
	maximum = 0.0034 (1 samples)
Injected flit rate average = 0.0392875 (1 samples)
	minimum = 0.004 (1 samples)
	maximum = 0.068 (1 samples)
Accepted flit rate average = 0.0393375 (1 samples)
	minimum = 0.004 (1 samples)
	maximum = 0.068 (1 samples)
Injected packet size average = 20.0191 (1 samples)
Accepted packet size average = 20.1086 (1 samples)
Hops average = 11.6083 (1 samples)
Total run time 1.71048
