BEGIN Configuration File: ../../IL2236_project/verify/figure2/VAL/mesh88_lat
// $Id$

// Copyright (c) 2007-2015, Trustees of The Leland Stanford Junior University
// All rights reserved.
//
// Redistribution and use in source and binary forms, with or without
// modification, are permitted provided that the following conditions are met:
//
// Redistributions of source code must retain the above copyright notice, this
// list of conditions and the following disclaimer.
// Redistributions in binary form must reproduce the above copyright notice,
// this list of conditions and the following disclaimer in the documentation
// and/or other materials provided with the distribution.
//
// THIS SOFTWARE IS PROVIDED BY THE COPYRIGHT HOLDERS AND CONTRIBUTORS "AS IS"
// AND ANY EXPRESS OR IMPLIED WARRANTIES, INCLUDING, BUT NOT LIMITED TO, THE
// IMPLIED WARRANTIES OF MERCHANTABILITY AND FITNESS FOR A PARTICULAR PURPOSE
// ARE DISCLAIMED. IN NO EVENT SHALL THE COPYRIGHT OWNER OR CONTRIBUTORS BE
// LIABLE FOR ANY DIRECT, INDIRECT, INCIDENTAL, SPECIAL, EXEMPLARY, OR
// CONSEQUENTIAL DAMAGES (INCLUDING, BUT NOT LIMITED TO, PROCUREMENT OF
// SUBSTITUTE GOODS OR SERVICES; LOSS OF USE, DATA, OR PROFITS; OR BUSINESS
// INTERRUPTION) HOWEVER CAUSED AND ON ANY THEORY OF LIABILITY, WHETHER IN
// CONTRACT, STRICT LIABILITY, OR TORT (INCLUDING NEGLIGENCE OR OTHERWISE)
// ARISING IN ANY WAY OUT OF THE USE OF THIS SOFTWARE, EVEN IF ADVISED OF THE
// POSSIBILITY OF SUCH DAMAGE.

//8X8 mesh with 20 flits per packet under injection mode
//injection rate here is packet per cycle, NOT flit per cycle

// Topology

topology = mesh;
k = 8;
n = 2;

// Routing
routing_function = valiant;

// Flow control
num_vcs     = 8;
vc_buf_size = 8;
wait_for_tail_credit = 1;

// Router architecture
vc_allocator = islip;
sw_allocator = islip;
alloc_iters  = 1;

credit_delay   = 2;
routing_delay  = 0;
vc_alloc_delay = 1;
sw_alloc_delay = 1;

input_speedup     = 2;
output_speedup    = 1;
internal_speedup  = 1.0;


// Traffic
traffic = transpose;
packet_size = 20;


// Simulation
sim_type = latency;

injection_rate = .0040;


END Configuration File: ../../IL2236_project/verify/figure2/VAL/mesh88_lat
Class 0:
Packet latency average = 83.9593
	minimum = 33
	maximum = 175
Network latency average = 83.0271
	minimum = 33
	maximum = 153
Slowest packet = 112
Flit latency average = 53.3878
	minimum = 14
	maximum = 134
Slowest flit = 2714
Fragmentation average = 18.1719
	minimum = 0
	maximum = 63
Injected packet rate average = 0.00364063
	minimum = 0 (at node 24)
	maximum = 0.008 (at node 20)
Accepted packet rate average = 0.00345313
	minimum = 0 (at node 3)
	maximum = 0.007 (at node 32)
Injected flit rate average = 0.0720781
	minimum = 0 (at node 24)
	maximum = 0.148 (at node 20)
Accepted flit rate average= 0.0696563
	minimum = 0 (at node 3)
	maximum = 0.14 (at node 32)
Injected packet length average = 19.7983
Accepted packet length average = 20.1719
Total in-flight flits = 202 (0 measured)
latency change    = 1
throughput change = 1
Class 0:
Packet latency average = 87.6787
	minimum = 33
	maximum = 175
Network latency average = 86.5872
	minimum = 33
	maximum = 171
Slowest packet = 112
Flit latency average = 55.6817
	minimum = 6
	maximum = 152
Slowest flit = 7179
Fragmentation average = 21.1787
	minimum = 0
	maximum = 97
Injected packet rate average = 0.00389844
	minimum = 0.001 (at node 7)
	maximum = 0.0075 (at node 51)
Accepted packet rate average = 0.00367187
	minimum = 0.001 (at node 28)
	maximum = 0.0075 (at node 30)
Injected flit rate average = 0.0774219
	minimum = 0.02 (at node 7)
	maximum = 0.15 (at node 51)
Accepted flit rate average= 0.0745156
	minimum = 0.02 (at node 56)
	maximum = 0.15 (at node 30)
Injected packet length average = 19.8597
Accepted packet length average = 20.2936
Total in-flight flits = 442 (0 measured)
latency change    = 0.0424213
throughput change = 0.0652128
Class 0:
Packet latency average = 95.0074
	minimum = 33
	maximum = 242
Network latency average = 93.7185
	minimum = 33
	maximum = 242
Slowest packet = 541
Flit latency average = 61.3518
	minimum = 14
	maximum = 223
Slowest flit = 10839
Fragmentation average = 24.6296
	minimum = 0
	maximum = 126
Injected packet rate average = 0.00414063
	minimum = 0 (at node 14)
	maximum = 0.008 (at node 2)
Accepted packet rate average = 0.00421875
	minimum = 0 (at node 15)
	maximum = 0.009 (at node 3)
Injected flit rate average = 0.0835937
	minimum = 0.005 (at node 14)
	maximum = 0.169 (at node 2)
Accepted flit rate average= 0.0839375
	minimum = 0.002 (at node 15)
	maximum = 0.18 (at node 16)
Injected packet length average = 20.1887
Accepted packet length average = 19.8963
Total in-flight flits = 370 (0 measured)
latency change    = 0.077138
throughput change = 0.112249
Warmed up ...Time used is 3000 cycles
Class 0:
Packet latency average = 90.5175
	minimum = 25
	maximum = 274
Network latency average = 89.807
	minimum = 25
	maximum = 274
Slowest packet = 905
Flit latency average = 58.9256
	minimum = 6
	maximum = 255
Slowest flit = 18119
Fragmentation average = 23.0789
	minimum = 0
	maximum = 146
Injected packet rate average = 0.00392188
	minimum = 0 (at node 21)
	maximum = 0.009 (at node 0)
Accepted packet rate average = 0.0039375
	minimum = 0 (at node 4)
	maximum = 0.009 (at node 25)
Injected flit rate average = 0.0780625
	minimum = 0 (at node 26)
	maximum = 0.18 (at node 0)
Accepted flit rate average= 0.079125
	minimum = 0 (at node 4)
	maximum = 0.166 (at node 25)
Injected packet length average = 19.9044
Accepted packet length average = 20.0952
Total in-flight flits = 326 (326 measured)
latency change    = 0.0496021
throughput change = 0.0608215
Class 0:
Packet latency average = 89.0397
	minimum = 25
	maximum = 274
Network latency average = 88.1678
	minimum = 25
	maximum = 274
Slowest packet = 905
Flit latency average = 57.4276
	minimum = 6
	maximum = 255
Slowest flit = 18119
Fragmentation average = 21.9338
	minimum = 0
	maximum = 146
Injected packet rate average = 0.00373437
	minimum = 0.0005 (at node 21)
	maximum = 0.007 (at node 33)
Accepted packet rate average = 0.00372656
	minimum = 0.001 (at node 58)
	maximum = 0.0065 (at node 12)
Injected flit rate average = 0.0744375
	minimum = 0.0135 (at node 21)
	maximum = 0.14 (at node 33)
Accepted flit rate average= 0.0746094
	minimum = 0.0205 (at node 58)
	maximum = 0.1365 (at node 12)
Injected packet length average = 19.9331
Accepted packet length average = 20.021
Total in-flight flits = 380 (380 measured)
latency change    = 0.0165972
throughput change = 0.0605236
Class 0:
Packet latency average = 89.9078
	minimum = 25
	maximum = 274
Network latency average = 88.9801
	minimum = 25
	maximum = 274
Slowest packet = 905
Flit latency average = 57.8492
	minimum = 6
	maximum = 255
Slowest flit = 18119
Fragmentation average = 22.3262
	minimum = 0
	maximum = 146
Injected packet rate average = 0.00375
	minimum = 0.00166667 (at node 1)
	maximum = 0.007 (at node 50)
Accepted packet rate average = 0.00379687
	minimum = 0.00166667 (at node 8)
	maximum = 0.00666667 (at node 0)
Injected flit rate average = 0.0750677
	minimum = 0.0333333 (at node 1)
	maximum = 0.14 (at node 50)
Accepted flit rate average= 0.0759479
	minimum = 0.0333333 (at node 8)
	maximum = 0.133333 (at node 0)
Injected packet length average = 20.0181
Accepted packet length average = 20.0027
Total in-flight flits = 188 (188 measured)
latency change    = 0.00965507
throughput change = 0.0176245
Class 0:
Packet latency average = 89.9679
	minimum = 25
	maximum = 274
Network latency average = 89.1016
	minimum = 25
	maximum = 274
Slowest packet = 905
Flit latency average = 57.962
	minimum = 6
	maximum = 255
Slowest flit = 18119
Fragmentation average = 22
	minimum = 0
	maximum = 146
Injected packet rate average = 0.00385547
	minimum = 0.00225 (at node 15)
	maximum = 0.00625 (at node 52)
Accepted packet rate average = 0.00386328
	minimum = 0.00225 (at node 57)
	maximum = 0.00625 (at node 38)
Injected flit rate average = 0.0768477
	minimum = 0.045 (at node 15)
	maximum = 0.125 (at node 52)
Accepted flit rate average= 0.077043
	minimum = 0.045 (at node 57)
	maximum = 0.125 (at node 38)
Injected packet length average = 19.9321
Accepted packet length average = 19.9424
Total in-flight flits = 387 (387 measured)
latency change    = 0.00066773
throughput change = 0.0142135
Class 0:
Packet latency average = 90.7414
	minimum = 25
	maximum = 274
Network latency average = 89.7397
	minimum = 25
	maximum = 274
Slowest packet = 905
Flit latency average = 58.2749
	minimum = 6
	maximum = 255
Slowest flit = 18119
Fragmentation average = 22.4696
	minimum = 0
	maximum = 146
Injected packet rate average = 0.0038875
	minimum = 0.0024 (at node 32)
	maximum = 0.0062 (at node 50)
Accepted packet rate average = 0.00388125
	minimum = 0.0024 (at node 4)
	maximum = 0.0058 (at node 0)
Injected flit rate average = 0.0776437
	minimum = 0.048 (at node 32)
	maximum = 0.124 (at node 50)
Accepted flit rate average= 0.0777031
	minimum = 0.048 (at node 4)
	maximum = 0.1196 (at node 22)
Injected packet length average = 19.9727
Accepted packet length average = 20.0201
Total in-flight flits = 385 (385 measured)
latency change    = 0.00852427
throughput change = 0.00849588
Draining all recorded packets ...
Draining remaining packets ...
Time taken is 8278 cycles
====== Overall Traffic Statistics ======
====== Traffic class 0 ======
Packet latency average = 91.0683 (1 samples)
	minimum = 25 (1 samples)
	maximum = 274 (1 samples)
Network latency average = 90.0691 (1 samples)
	minimum = 25 (1 samples)
	maximum = 274 (1 samples)
Flit latency average = 58.5066 (1 samples)
	minimum = 6 (1 samples)
	maximum = 255 (1 samples)
Fragmentation average = 22.6535 (1 samples)
	minimum = 0 (1 samples)
	maximum = 146 (1 samples)
Injected packet rate average = 0.0038875 (1 samples)
	minimum = 0.0024 (1 samples)
	maximum = 0.0062 (1 samples)
Accepted packet rate average = 0.00388125 (1 samples)
	minimum = 0.0024 (1 samples)
	maximum = 0.0058 (1 samples)
Injected flit rate average = 0.0776437 (1 samples)
	minimum = 0.048 (1 samples)
	maximum = 0.124 (1 samples)
Accepted flit rate average = 0.0777031 (1 samples)
	minimum = 0.048 (1 samples)
	maximum = 0.1196 (1 samples)
Injected packet size average = 19.9727 (1 samples)
Accepted packet size average = 20.0201 (1 samples)
Hops average = 11.4148 (1 samples)
Total run time 2.8487
