BEGIN Configuration File: ../../IL2236_project/verify/figure2/VAL/mesh88_lat
// $Id$

// Copyright (c) 2007-2015, Trustees of The Leland Stanford Junior University
// All rights reserved.
//
// Redistribution and use in source and binary forms, with or without
// modification, are permitted provided that the following conditions are met:
//
// Redistributions of source code must retain the above copyright notice, this
// list of conditions and the following disclaimer.
// Redistributions in binary form must reproduce the above copyright notice,
// this list of conditions and the following disclaimer in the documentation
// and/or other materials provided with the distribution.
//
// THIS SOFTWARE IS PROVIDED BY THE COPYRIGHT HOLDERS AND CONTRIBUTORS "AS IS"
// AND ANY EXPRESS OR IMPLIED WARRANTIES, INCLUDING, BUT NOT LIMITED TO, THE
// IMPLIED WARRANTIES OF MERCHANTABILITY AND FITNESS FOR A PARTICULAR PURPOSE
// ARE DISCLAIMED. IN NO EVENT SHALL THE COPYRIGHT OWNER OR CONTRIBUTORS BE
// LIABLE FOR ANY DIRECT, INDIRECT, INCIDENTAL, SPECIAL, EXEMPLARY, OR
// CONSEQUENTIAL DAMAGES (INCLUDING, BUT NOT LIMITED TO, PROCUREMENT OF
// SUBSTITUTE GOODS OR SERVICES; LOSS OF USE, DATA, OR PROFITS; OR BUSINESS
// INTERRUPTION) HOWEVER CAUSED AND ON ANY THEORY OF LIABILITY, WHETHER IN
// CONTRACT, STRICT LIABILITY, OR TORT (INCLUDING NEGLIGENCE OR OTHERWISE)
// ARISING IN ANY WAY OUT OF THE USE OF THIS SOFTWARE, EVEN IF ADVISED OF THE
// POSSIBILITY OF SUCH DAMAGE.

//8X8 mesh with 20 flits per packet under injection mode
//injection rate here is packet per cycle, NOT flit per cycle

// Topology

topology = mesh;
k = 8;
n = 2;

// Routing
routing_function = valiant;

// Flow control
num_vcs     = 8;
vc_buf_size = 8;
wait_for_tail_credit = 1;

// Router architecture
vc_allocator = islip;
sw_allocator = islip;
alloc_iters  = 1;

credit_delay   = 2;
routing_delay  = 0;
vc_alloc_delay = 1;
sw_alloc_delay = 1;

input_speedup     = 2;
output_speedup    = 1;
internal_speedup  = 1.0;


// Traffic
traffic = transpose;
packet_size = 20;


// Simulation
sim_type = latency;

injection_rate = .0075;


END Configuration File: ../../IL2236_project/verify/figure2/VAL/mesh88_lat
Class 0:
Packet latency average = 131.415
	minimum = 36
	maximum = 397
Network latency average = 127.903
	minimum = 36
	maximum = 397
Slowest packet = 270
Flit latency average = 78.9108
	minimum = 14
	maximum = 370
Slowest flit = 5419
Fragmentation average = 54.465
	minimum = 0
	maximum = 170
Injected packet rate average = 0.00698438
	minimum = 0.002 (at node 24)
	maximum = 0.014 (at node 57)
Accepted packet rate average = 0.00625
	minimum = 0.002 (at node 3)
	maximum = 0.011 (at node 15)
Injected flit rate average = 0.13825
	minimum = 0.04 (at node 24)
	maximum = 0.266 (at node 57)
Accepted flit rate average= 0.129516
	minimum = 0.04 (at node 3)
	maximum = 0.24 (at node 15)
Injected packet length average = 19.7942
Accepted packet length average = 20.7225
Total in-flight flits = 651 (0 measured)
latency change    = 1
throughput change = 1
Class 0:
Packet latency average = 133.085
	minimum = 34
	maximum = 408
Network latency average = 129.369
	minimum = 34
	maximum = 408
Slowest packet = 628
Flit latency average = 80.4917
	minimum = 14
	maximum = 389
Slowest flit = 12579
Fragmentation average = 54.1203
	minimum = 0
	maximum = 218
Injected packet rate average = 0.00711719
	minimum = 0.003 (at node 53)
	maximum = 0.0105 (at node 34)
Accepted packet rate average = 0.00642969
	minimum = 0.002 (at node 39)
	maximum = 0.01 (at node 20)
Injected flit rate average = 0.141164
	minimum = 0.0545 (at node 60)
	maximum = 0.21 (at node 34)
Accepted flit rate average= 0.132922
	minimum = 0.04 (at node 39)
	maximum = 0.2085 (at node 20)
Injected packet length average = 19.8342
Accepted packet length average = 20.6731
Total in-flight flits = 1206 (0 measured)
latency change    = 0.0125488
throughput change = 0.025626
Class 0:
Packet latency average = 156.618
	minimum = 25
	maximum = 408
Network latency average = 150.326
	minimum = 25
	maximum = 382
Slowest packet = 764
Flit latency average = 94.551
	minimum = 6
	maximum = 325
Slowest flit = 19054
Fragmentation average = 66.2378
	minimum = 0
	maximum = 198
Injected packet rate average = 0.00770312
	minimum = 0.002 (at node 2)
	maximum = 0.018 (at node 7)
Accepted packet rate average = 0.00801563
	minimum = 0.002 (at node 32)
	maximum = 0.017 (at node 29)
Injected flit rate average = 0.153766
	minimum = 0.04 (at node 2)
	maximum = 0.353 (at node 7)
Accepted flit rate average= 0.158156
	minimum = 0.04 (at node 32)
	maximum = 0.34 (at node 29)
Injected packet length average = 19.9615
Accepted packet length average = 19.731
Total in-flight flits = 944 (0 measured)
latency change    = 0.150257
throughput change = 0.159553
Warmed up ...Time used is 3000 cycles
Class 0:
Packet latency average = 138.276
	minimum = 33
	maximum = 373
Network latency average = 135.454
	minimum = 33
	maximum = 373
Slowest packet = 1538
Flit latency average = 87.4753
	minimum = 14
	maximum = 357
Slowest flit = 33955
Fragmentation average = 56.3709
	minimum = 0
	maximum = 178
Injected packet rate average = 0.00715625
	minimum = 0.002 (at node 3)
	maximum = 0.012 (at node 35)
Accepted packet rate average = 0.00729688
	minimum = 0.001 (at node 52)
	maximum = 0.013 (at node 0)
Injected flit rate average = 0.144141
	minimum = 0.04 (at node 3)
	maximum = 0.236 (at node 41)
Accepted flit rate average= 0.144609
	minimum = 0.02 (at node 52)
	maximum = 0.256 (at node 34)
Injected packet length average = 20.1419
Accepted packet length average = 19.818
Total in-flight flits = 849 (849 measured)
latency change    = 0.13265
throughput change = 0.0936791
Class 0:
Packet latency average = 134.542
	minimum = 33
	maximum = 420
Network latency average = 130.856
	minimum = 33
	maximum = 407
Slowest packet = 1697
Flit latency average = 82.6599
	minimum = 14
	maximum = 370
Slowest flit = 33959
Fragmentation average = 54.3333
	minimum = 0
	maximum = 178
Injected packet rate average = 0.00714844
	minimum = 0.0025 (at node 13)
	maximum = 0.012 (at node 4)
Accepted packet rate average = 0.00725781
	minimum = 0.003 (at node 40)
	maximum = 0.0105 (at node 32)
Injected flit rate average = 0.143484
	minimum = 0.0555 (at node 13)
	maximum = 0.239 (at node 4)
Accepted flit rate average= 0.144016
	minimum = 0.067 (at node 40)
	maximum = 0.22 (at node 32)
Injected packet length average = 20.0721
Accepted packet length average = 19.8428
Total in-flight flits = 810 (810 measured)
latency change    = 0.0277481
throughput change = 0.00412282
Class 0:
Packet latency average = 133.552
	minimum = 29
	maximum = 420
Network latency average = 129.844
	minimum = 29
	maximum = 407
Slowest packet = 1697
Flit latency average = 81.6882
	minimum = 6
	maximum = 370
Slowest flit = 33959
Fragmentation average = 54.1801
	minimum = 0
	maximum = 203
Injected packet rate average = 0.00703125
	minimum = 0.00366667 (at node 5)
	maximum = 0.01 (at node 4)
Accepted packet rate average = 0.00715104
	minimum = 0.004 (at node 40)
	maximum = 0.0103333 (at node 7)
Injected flit rate average = 0.14088
	minimum = 0.076 (at node 62)
	maximum = 0.2 (at node 4)
Accepted flit rate average= 0.141813
	minimum = 0.08 (at node 40)
	maximum = 0.206 (at node 7)
Injected packet length average = 20.0363
Accepted packet length average = 19.831
Total in-flight flits = 716 (716 measured)
latency change    = 0.00741786
throughput change = 0.0155355
Class 0:
Packet latency average = 136.379
	minimum = 29
	maximum = 420
Network latency average = 132.697
	minimum = 29
	maximum = 407
Slowest packet = 1697
Flit latency average = 83.3438
	minimum = 6
	maximum = 370
Slowest flit = 33959
Fragmentation average = 55.8501
	minimum = 0
	maximum = 209
Injected packet rate average = 0.00717188
	minimum = 0.00425 (at node 13)
	maximum = 0.0095 (at node 61)
Accepted packet rate average = 0.00717188
	minimum = 0.00475 (at node 40)
	maximum = 0.00975 (at node 47)
Injected flit rate average = 0.14352
	minimum = 0.08775 (at node 13)
	maximum = 0.1945 (at node 61)
Accepted flit rate average= 0.143512
	minimum = 0.095 (at node 41)
	maximum = 0.197 (at node 47)
Injected packet length average = 20.0114
Accepted packet length average = 20.0103
Total in-flight flits = 925 (925 measured)
latency change    = 0.0207307
throughput change = 0.0118403
Draining all recorded packets ...
Draining remaining packets ...
Time taken is 7339 cycles
====== Overall Traffic Statistics ======
====== Traffic class 0 ======
Packet latency average = 137.245 (1 samples)
	minimum = 29 (1 samples)
	maximum = 420 (1 samples)
Network latency average = 133.488 (1 samples)
	minimum = 29 (1 samples)
	maximum = 407 (1 samples)
Flit latency average = 83.6836 (1 samples)
	minimum = 6 (1 samples)
	maximum = 370 (1 samples)
Fragmentation average = 56.5185 (1 samples)
	minimum = 0 (1 samples)
	maximum = 209 (1 samples)
Injected packet rate average = 0.00717188 (1 samples)
	minimum = 0.00425 (1 samples)
	maximum = 0.0095 (1 samples)
Accepted packet rate average = 0.00717188 (1 samples)
	minimum = 0.00475 (1 samples)
	maximum = 0.00975 (1 samples)
Injected flit rate average = 0.14352 (1 samples)
	minimum = 0.08775 (1 samples)
	maximum = 0.1945 (1 samples)
Accepted flit rate average = 0.143512 (1 samples)
	minimum = 0.095 (1 samples)
	maximum = 0.197 (1 samples)
Injected packet size average = 20.0114 (1 samples)
Accepted packet size average = 20.0103 (1 samples)
Hops average = 11.675 (1 samples)
Total run time 4.17218
