BEGIN Configuration File: ../../IL2236_project/verify/figure2/VAL/mesh88_lat
// $Id$

// Copyright (c) 2007-2015, Trustees of The Leland Stanford Junior University
// All rights reserved.
//
// Redistribution and use in source and binary forms, with or without
// modification, are permitted provided that the following conditions are met:
//
// Redistributions of source code must retain the above copyright notice, this
// list of conditions and the following disclaimer.
// Redistributions in binary form must reproduce the above copyright notice,
// this list of conditions and the following disclaimer in the documentation
// and/or other materials provided with the distribution.
//
// THIS SOFTWARE IS PROVIDED BY THE COPYRIGHT HOLDERS AND CONTRIBUTORS "AS IS"
// AND ANY EXPRESS OR IMPLIED WARRANTIES, INCLUDING, BUT NOT LIMITED TO, THE
// IMPLIED WARRANTIES OF MERCHANTABILITY AND FITNESS FOR A PARTICULAR PURPOSE
// ARE DISCLAIMED. IN NO EVENT SHALL THE COPYRIGHT OWNER OR CONTRIBUTORS BE
// LIABLE FOR ANY DIRECT, INDIRECT, INCIDENTAL, SPECIAL, EXEMPLARY, OR
// CONSEQUENTIAL DAMAGES (INCLUDING, BUT NOT LIMITED TO, PROCUREMENT OF
// SUBSTITUTE GOODS OR SERVICES; LOSS OF USE, DATA, OR PROFITS; OR BUSINESS
// INTERRUPTION) HOWEVER CAUSED AND ON ANY THEORY OF LIABILITY, WHETHER IN
// CONTRACT, STRICT LIABILITY, OR TORT (INCLUDING NEGLIGENCE OR OTHERWISE)
// ARISING IN ANY WAY OUT OF THE USE OF THIS SOFTWARE, EVEN IF ADVISED OF THE
// POSSIBILITY OF SUCH DAMAGE.

//8X8 mesh with 20 flits per packet under injection mode
//injection rate here is packet per cycle, NOT flit per cycle

// Topology

topology = mesh;
k = 8;
n = 2;

// Routing
routing_function = valiant;

// Flow control
num_vcs     = 8;
vc_buf_size = 8;
wait_for_tail_credit = 1;

// Router architecture
vc_allocator = islip;
sw_allocator = islip;
alloc_iters  = 1;

credit_delay   = 2;
routing_delay  = 0;
vc_alloc_delay = 1;
sw_alloc_delay = 1;

input_speedup     = 2;
output_speedup    = 1;
internal_speedup  = 1.0;


// Traffic
traffic = transpose;
packet_size = 20;


// Simulation
sim_type = latency;

injection_rate = .0095;


END Configuration File: ../../IL2236_project/verify/figure2/VAL/mesh88_lat
Class 0:
Packet latency average = 159.959
	minimum = 30
	maximum = 482
Network latency average = 154.093
	minimum = 25
	maximum = 394
Slowest packet = 188
Flit latency average = 96.9771
	minimum = 6
	maximum = 375
Slowest flit = 5219
Fragmentation average = 70.4855
	minimum = 0
	maximum = 203
Injected packet rate average = 0.00907812
	minimum = 0.002 (at node 32)
	maximum = 0.014 (at node 9)
Accepted packet rate average = 0.0075625
	minimum = 0.002 (at node 4)
	maximum = 0.013 (at node 52)
Injected flit rate average = 0.179125
	minimum = 0.04 (at node 32)
	maximum = 0.28 (at node 9)
Accepted flit rate average= 0.160188
	minimum = 0.04 (at node 4)
	maximum = 0.268 (at node 52)
Injected packet length average = 19.7315
Accepted packet length average = 21.1818
Total in-flight flits = 1368 (0 measured)
latency change    = 1
throughput change = 1
Class 0:
Packet latency average = 172.991
	minimum = 30
	maximum = 482
Network latency average = 165.292
	minimum = 25
	maximum = 454
Slowest packet = 188
Flit latency average = 103.974
	minimum = 6
	maximum = 475
Slowest flit = 17546
Fragmentation average = 75.3523
	minimum = 0
	maximum = 209
Injected packet rate average = 0.009125
	minimum = 0.0045 (at node 27)
	maximum = 0.013 (at node 3)
Accepted packet rate average = 0.00822656
	minimum = 0.0035 (at node 4)
	maximum = 0.013 (at node 30)
Injected flit rate average = 0.181086
	minimum = 0.086 (at node 27)
	maximum = 0.26 (at node 3)
Accepted flit rate average= 0.169648
	minimum = 0.077 (at node 27)
	maximum = 0.26 (at node 30)
Injected packet length average = 19.845
Accepted packet length average = 20.622
Total in-flight flits = 1645 (0 measured)
latency change    = 0.0753377
throughput change = 0.0557679
Class 0:
Packet latency average = 220.471
	minimum = 37
	maximum = 697
Network latency average = 203.348
	minimum = 37
	maximum = 679
Slowest packet = 877
Flit latency average = 136.275
	minimum = 6
	maximum = 652
Slowest flit = 27515
Fragmentation average = 85.1569
	minimum = 9
	maximum = 279
Injected packet rate average = 0.00979688
	minimum = 0.004 (at node 44)
	maximum = 0.015 (at node 32)
Accepted packet rate average = 0.0095625
	minimum = 0.003 (at node 45)
	maximum = 0.016 (at node 7)
Injected flit rate average = 0.195906
	minimum = 0.08 (at node 44)
	maximum = 0.303 (at node 37)
Accepted flit rate average= 0.191828
	minimum = 0.06 (at node 45)
	maximum = 0.303 (at node 7)
Injected packet length average = 19.9968
Accepted packet length average = 20.0605
Total in-flight flits = 1908 (0 measured)
latency change    = 0.215354
throughput change = 0.115623
Warmed up ...Time used is 3000 cycles
Class 0:
Packet latency average = 236.092
	minimum = 25
	maximum = 793
Network latency average = 212.364
	minimum = 25
	maximum = 764
Slowest packet = 1839
Flit latency average = 151.69
	minimum = 6
	maximum = 831
Slowest flit = 32339
Fragmentation average = 89.2029
	minimum = 0
	maximum = 225
Injected packet rate average = 0.00973437
	minimum = 0.004 (at node 38)
	maximum = 0.016 (at node 48)
Accepted packet rate average = 0.0095
	minimum = 0.004 (at node 40)
	maximum = 0.017 (at node 9)
Injected flit rate average = 0.194984
	minimum = 0.08 (at node 38)
	maximum = 0.32 (at node 48)
Accepted flit rate average= 0.191
	minimum = 0.08 (at node 52)
	maximum = 0.334 (at node 9)
Injected packet length average = 20.0305
Accepted packet length average = 20.1053
Total in-flight flits = 2144 (2144 measured)
latency change    = 0.0661668
throughput change = 0.00433573
Class 0:
Packet latency average = 224.696
	minimum = 25
	maximum = 793
Network latency average = 208.648
	minimum = 25
	maximum = 764
Slowest packet = 1839
Flit latency average = 143.856
	minimum = 6
	maximum = 831
Slowest flit = 32339
Fragmentation average = 86.9431
	minimum = 0
	maximum = 248
Injected packet rate average = 0.00935156
	minimum = 0.0055 (at node 22)
	maximum = 0.0135 (at node 43)
Accepted packet rate average = 0.00952344
	minimum = 0.0055 (at node 52)
	maximum = 0.0135 (at node 29)
Injected flit rate average = 0.187539
	minimum = 0.11 (at node 22)
	maximum = 0.276 (at node 43)
Accepted flit rate average= 0.190023
	minimum = 0.12 (at node 50)
	maximum = 0.272 (at node 32)
Injected packet length average = 20.0543
Accepted packet length average = 19.9532
Total in-flight flits = 1525 (1525 measured)
latency change    = 0.0507174
throughput change = 0.00513917
Class 0:
Packet latency average = 216.733
	minimum = 25
	maximum = 793
Network latency average = 201.813
	minimum = 25
	maximum = 764
Slowest packet = 1839
Flit latency average = 137.46
	minimum = 6
	maximum = 831
Slowest flit = 32339
Fragmentation average = 85.2679
	minimum = 0
	maximum = 248
Injected packet rate average = 0.00919792
	minimum = 0.00533333 (at node 22)
	maximum = 0.013 (at node 4)
Accepted packet rate average = 0.00938542
	minimum = 0.00533333 (at node 50)
	maximum = 0.0126667 (at node 13)
Injected flit rate average = 0.184156
	minimum = 0.106667 (at node 22)
	maximum = 0.259 (at node 7)
Accepted flit rate average= 0.186865
	minimum = 0.106667 (at node 50)
	maximum = 0.259333 (at node 32)
Injected packet length average = 20.0215
Accepted packet length average = 19.9101
Total in-flight flits = 1350 (1350 measured)
latency change    = 0.0367401
throughput change = 0.0169045
Class 0:
Packet latency average = 216.565
	minimum = 25
	maximum = 793
Network latency average = 201.21
	minimum = 25
	maximum = 764
Slowest packet = 1839
Flit latency average = 136.134
	minimum = 6
	maximum = 831
Slowest flit = 32339
Fragmentation average = 85.2971
	minimum = 0
	maximum = 248
Injected packet rate average = 0.00928516
	minimum = 0.0055 (at node 31)
	maximum = 0.012 (at node 7)
Accepted packet rate average = 0.00931641
	minimum = 0.00625 (at node 50)
	maximum = 0.012 (at node 54)
Injected flit rate average = 0.185746
	minimum = 0.11 (at node 31)
	maximum = 0.23775 (at node 7)
Accepted flit rate average= 0.185855
	minimum = 0.12425 (at node 59)
	maximum = 0.239 (at node 56)
Injected packet length average = 20.0046
Accepted packet length average = 19.9493
Total in-flight flits = 1869 (1869 measured)
latency change    = 0.000775024
throughput change = 0.00542957
Class 0:
Packet latency average = 218.22
	minimum = 25
	maximum = 793
Network latency average = 203.177
	minimum = 25
	maximum = 764
Slowest packet = 1839
Flit latency average = 137.1
	minimum = 6
	maximum = 831
Slowest flit = 32339
Fragmentation average = 85.7
	minimum = 0
	maximum = 257
Injected packet rate average = 0.00935
	minimum = 0.0064 (at node 22)
	maximum = 0.0118 (at node 19)
Accepted packet rate average = 0.00936563
	minimum = 0.0066 (at node 50)
	maximum = 0.0116 (at node 56)
Injected flit rate average = 0.186925
	minimum = 0.128 (at node 22)
	maximum = 0.235 (at node 19)
Accepted flit rate average= 0.18715
	minimum = 0.132 (at node 50)
	maximum = 0.232 (at node 56)
Injected packet length average = 19.992
Accepted packet length average = 19.9826
Total in-flight flits = 1860 (1860 measured)
latency change    = 0.00758262
throughput change = 0.00691708
Draining all recorded packets ...
Class 0:
Remaining flits: 96807 96808 96809 96810 96811 96812 96813 96814 96815 96816 [...] (1937 flits)
Measured flits: 96807 96808 96809 96810 96811 96812 96813 96814 96815 96816 [...] (13 flits)
Draining remaining packets ...
Time taken is 9374 cycles
====== Overall Traffic Statistics ======
====== Traffic class 0 ======
Packet latency average = 223.497 (1 samples)
	minimum = 25 (1 samples)
	maximum = 1333 (1 samples)
Network latency average = 206.598 (1 samples)
	minimum = 25 (1 samples)
	maximum = 995 (1 samples)
Flit latency average = 140.78 (1 samples)
	minimum = 6 (1 samples)
	maximum = 932 (1 samples)
Fragmentation average = 86.4465 (1 samples)
	minimum = 0 (1 samples)
	maximum = 257 (1 samples)
Injected packet rate average = 0.00935 (1 samples)
	minimum = 0.0064 (1 samples)
	maximum = 0.0118 (1 samples)
Accepted packet rate average = 0.00936563 (1 samples)
	minimum = 0.0066 (1 samples)
	maximum = 0.0116 (1 samples)
Injected flit rate average = 0.186925 (1 samples)
	minimum = 0.128 (1 samples)
	maximum = 0.235 (1 samples)
Accepted flit rate average = 0.18715 (1 samples)
	minimum = 0.132 (1 samples)
	maximum = 0.232 (1 samples)
Injected packet size average = 19.992 (1 samples)
Accepted packet size average = 19.9826 (1 samples)
Hops average = 11.6465 (1 samples)
Total run time 7.0098
