BEGIN Configuration File: ../../IL2236_project/verify/figure2/VAL/mesh88_lat
// $Id$

// Copyright (c) 2007-2015, Trustees of The Leland Stanford Junior University
// All rights reserved.
//
// Redistribution and use in source and binary forms, with or without
// modification, are permitted provided that the following conditions are met:
//
// Redistributions of source code must retain the above copyright notice, this
// list of conditions and the following disclaimer.
// Redistributions in binary form must reproduce the above copyright notice,
// this list of conditions and the following disclaimer in the documentation
// and/or other materials provided with the distribution.
//
// THIS SOFTWARE IS PROVIDED BY THE COPYRIGHT HOLDERS AND CONTRIBUTORS "AS IS"
// AND ANY EXPRESS OR IMPLIED WARRANTIES, INCLUDING, BUT NOT LIMITED TO, THE
// IMPLIED WARRANTIES OF MERCHANTABILITY AND FITNESS FOR A PARTICULAR PURPOSE
// ARE DISCLAIMED. IN NO EVENT SHALL THE COPYRIGHT OWNER OR CONTRIBUTORS BE
// LIABLE FOR ANY DIRECT, INDIRECT, INCIDENTAL, SPECIAL, EXEMPLARY, OR
// CONSEQUENTIAL DAMAGES (INCLUDING, BUT NOT LIMITED TO, PROCUREMENT OF
// SUBSTITUTE GOODS OR SERVICES; LOSS OF USE, DATA, OR PROFITS; OR BUSINESS
// INTERRUPTION) HOWEVER CAUSED AND ON ANY THEORY OF LIABILITY, WHETHER IN
// CONTRACT, STRICT LIABILITY, OR TORT (INCLUDING NEGLIGENCE OR OTHERWISE)
// ARISING IN ANY WAY OUT OF THE USE OF THIS SOFTWARE, EVEN IF ADVISED OF THE
// POSSIBILITY OF SUCH DAMAGE.

//8X8 mesh with 20 flits per packet under injection mode
//injection rate here is packet per cycle, NOT flit per cycle

// Topology

topology = mesh;
k = 8;
n = 2;

// Routing
routing_function = valiant;

// Flow control
num_vcs     = 8;
vc_buf_size = 8;
wait_for_tail_credit = 1;

// Router architecture
vc_allocator = islip;
sw_allocator = islip;
alloc_iters  = 1;

credit_delay   = 2;
routing_delay  = 0;
vc_alloc_delay = 1;
sw_alloc_delay = 1;

input_speedup     = 2;
output_speedup    = 1;
internal_speedup  = 1.0;


// Traffic
traffic = transpose;
packet_size = 20;


// Simulation
sim_type = latency;

injection_rate = .0090;


END Configuration File: ../../IL2236_project/verify/figure2/VAL/mesh88_lat
Class 0:
Packet latency average = 168.064
	minimum = 33
	maximum = 548
Network latency average = 160.983
	minimum = 33
	maximum = 517
Slowest packet = 136
Flit latency average = 103.132
	minimum = 6
	maximum = 480
Slowest flit = 2739
Fragmentation average = 71.2403
	minimum = 0
	maximum = 242
Injected packet rate average = 0.00870313
	minimum = 0.002 (at node 14)
	maximum = 0.017 (at node 42)
Accepted packet rate average = 0.00728125
	minimum = 0.001 (at node 49)
	maximum = 0.016 (at node 21)
Injected flit rate average = 0.171797
	minimum = 0.04 (at node 14)
	maximum = 0.322 (at node 42)
Accepted flit rate average= 0.152156
	minimum = 0.02 (at node 49)
	maximum = 0.32 (at node 21)
Injected packet length average = 19.7397
Accepted packet length average = 20.897
Total in-flight flits = 1402 (0 measured)
latency change    = 1
throughput change = 1
Class 0:
Packet latency average = 170.811
	minimum = 33
	maximum = 548
Network latency average = 163.387
	minimum = 31
	maximum = 517
Slowest packet = 136
Flit latency average = 104.129
	minimum = 6
	maximum = 480
Slowest flit = 2739
Fragmentation average = 71.498
	minimum = 0
	maximum = 242
Injected packet rate average = 0.00877344
	minimum = 0.004 (at node 16)
	maximum = 0.0145 (at node 6)
Accepted packet rate average = 0.00798438
	minimum = 0.004 (at node 2)
	maximum = 0.013 (at node 48)
Injected flit rate average = 0.174086
	minimum = 0.08 (at node 16)
	maximum = 0.2865 (at node 6)
Accepted flit rate average= 0.164664
	minimum = 0.08 (at node 2)
	maximum = 0.264 (at node 48)
Injected packet length average = 19.8424
Accepted packet length average = 20.6233
Total in-flight flits = 1383 (0 measured)
latency change    = 0.0160808
throughput change = 0.0759596
Class 0:
Packet latency average = 188.653
	minimum = 60
	maximum = 526
Network latency average = 179.463
	minimum = 54
	maximum = 526
Slowest packet = 1342
Flit latency average = 116.403
	minimum = 14
	maximum = 488
Slowest flit = 26858
Fragmentation average = 82.8581
	minimum = 6
	maximum = 288
Injected packet rate average = 0.0091875
	minimum = 0.005 (at node 11)
	maximum = 0.016 (at node 20)
Accepted packet rate average = 0.00914062
	minimum = 0.004 (at node 37)
	maximum = 0.016 (at node 61)
Injected flit rate average = 0.183516
	minimum = 0.1 (at node 11)
	maximum = 0.304 (at node 20)
Accepted flit rate average= 0.182
	minimum = 0.084 (at node 37)
	maximum = 0.319 (at node 61)
Injected packet length average = 19.9745
Accepted packet length average = 19.9111
Total in-flight flits = 1495 (0 measured)
latency change    = 0.0945749
throughput change = 0.0952524
Warmed up ...Time used is 3000 cycles
Class 0:
Packet latency average = 196.314
	minimum = 26
	maximum = 703
Network latency average = 178.709
	minimum = 26
	maximum = 561
Slowest packet = 1712
Flit latency average = 117.772
	minimum = 6
	maximum = 535
Slowest flit = 34939
Fragmentation average = 80.2769
	minimum = 1
	maximum = 254
Injected packet rate average = 0.00907812
	minimum = 0.003 (at node 45)
	maximum = 0.018 (at node 50)
Accepted packet rate average = 0.0091875
	minimum = 0.003 (at node 20)
	maximum = 0.016 (at node 22)
Injected flit rate average = 0.181688
	minimum = 0.06 (at node 45)
	maximum = 0.346 (at node 50)
Accepted flit rate average= 0.183109
	minimum = 0.06 (at node 20)
	maximum = 0.322 (at node 22)
Injected packet length average = 20.0138
Accepted packet length average = 19.9303
Total in-flight flits = 1396 (1396 measured)
latency change    = 0.0390245
throughput change = 0.00605854
Class 0:
Packet latency average = 183.745
	minimum = 26
	maximum = 703
Network latency average = 172.277
	minimum = 26
	maximum = 561
Slowest packet = 1712
Flit latency average = 112.848
	minimum = 6
	maximum = 535
Slowest flit = 34939
Fragmentation average = 77.7568
	minimum = 0
	maximum = 254
Injected packet rate average = 0.00880469
	minimum = 0.004 (at node 34)
	maximum = 0.0145 (at node 49)
Accepted packet rate average = 0.00884375
	minimum = 0.004 (at node 20)
	maximum = 0.014 (at node 50)
Injected flit rate average = 0.176539
	minimum = 0.08 (at node 34)
	maximum = 0.286 (at node 49)
Accepted flit rate average= 0.177055
	minimum = 0.08 (at node 20)
	maximum = 0.285 (at node 14)
Injected packet length average = 20.0506
Accepted packet length average = 20.0203
Total in-flight flits = 1372 (1372 measured)
latency change    = 0.0684041
throughput change = 0.0341967
Class 0:
Packet latency average = 184.481
	minimum = 25
	maximum = 703
Network latency average = 174.32
	minimum = 25
	maximum = 673
Slowest packet = 1712
Flit latency average = 113.274
	minimum = 6
	maximum = 654
Slowest flit = 58999
Fragmentation average = 78.0113
	minimum = 0
	maximum = 254
Injected packet rate average = 0.0086875
	minimum = 0.00466667 (at node 4)
	maximum = 0.0126667 (at node 49)
Accepted packet rate average = 0.00883854
	minimum = 0.005 (at node 20)
	maximum = 0.013 (at node 14)
Injected flit rate average = 0.173937
	minimum = 0.0933333 (at node 4)
	maximum = 0.253333 (at node 49)
Accepted flit rate average= 0.176313
	minimum = 0.101 (at node 32)
	maximum = 0.26 (at node 14)
Injected packet length average = 20.0216
Accepted packet length average = 19.9481
Total in-flight flits = 1003 (1003 measured)
latency change    = 0.00398804
throughput change = 0.0042095
Class 0:
Packet latency average = 185.94
	minimum = 25
	maximum = 703
Network latency average = 175.395
	minimum = 25
	maximum = 673
Slowest packet = 1712
Flit latency average = 113.443
	minimum = 6
	maximum = 654
Slowest flit = 58999
Fragmentation average = 78.6111
	minimum = 0
	maximum = 254
Injected packet rate average = 0.00878516
	minimum = 0.00525 (at node 4)
	maximum = 0.012 (at node 35)
Accepted packet rate average = 0.00872266
	minimum = 0.0055 (at node 32)
	maximum = 0.0115 (at node 50)
Injected flit rate average = 0.17582
	minimum = 0.10225 (at node 4)
	maximum = 0.23925 (at node 35)
Accepted flit rate average= 0.174613
	minimum = 0.10875 (at node 32)
	maximum = 0.23425 (at node 50)
Injected packet length average = 20.0133
Accepted packet length average = 20.0184
Total in-flight flits = 1774 (1774 measured)
latency change    = 0.00784926
throughput change = 0.00973133
Class 0:
Packet latency average = 190.399
	minimum = 25
	maximum = 703
Network latency average = 179.466
	minimum = 25
	maximum = 673
Slowest packet = 1712
Flit latency average = 116.199
	minimum = 6
	maximum = 654
Slowest flit = 58999
Fragmentation average = 80.3842
	minimum = 0
	maximum = 254
Injected packet rate average = 0.00883125
	minimum = 0.005 (at node 30)
	maximum = 0.012 (at node 35)
Accepted packet rate average = 0.00880937
	minimum = 0.0056 (at node 51)
	maximum = 0.012 (at node 28)
Injected flit rate average = 0.176847
	minimum = 0.103 (at node 30)
	maximum = 0.2388 (at node 35)
Accepted flit rate average= 0.1762
	minimum = 0.1102 (at node 51)
	maximum = 0.24 (at node 28)
Injected packet length average = 20.0251
Accepted packet length average = 20.0014
Total in-flight flits = 1631 (1631 measured)
latency change    = 0.0234169
throughput change = 0.00900521
Draining all recorded packets ...
Draining remaining packets ...
Time taken is 8687 cycles
====== Overall Traffic Statistics ======
====== Traffic class 0 ======
Packet latency average = 191.866 (1 samples)
	minimum = 25 (1 samples)
	maximum = 703 (1 samples)
Network latency average = 181.067 (1 samples)
	minimum = 25 (1 samples)
	maximum = 673 (1 samples)
Flit latency average = 116.045 (1 samples)
	minimum = 6 (1 samples)
	maximum = 654 (1 samples)
Fragmentation average = 80.9576 (1 samples)
	minimum = 0 (1 samples)
	maximum = 289 (1 samples)
Injected packet rate average = 0.00883125 (1 samples)
	minimum = 0.005 (1 samples)
	maximum = 0.012 (1 samples)
Accepted packet rate average = 0.00880937 (1 samples)
	minimum = 0.0056 (1 samples)
	maximum = 0.012 (1 samples)
Injected flit rate average = 0.176847 (1 samples)
	minimum = 0.103 (1 samples)
	maximum = 0.2388 (1 samples)
Accepted flit rate average = 0.1762 (1 samples)
	minimum = 0.1102 (1 samples)
	maximum = 0.24 (1 samples)
Injected packet size average = 20.0251 (1 samples)
Accepted packet size average = 20.0014 (1 samples)
Hops average = 11.5359 (1 samples)
Total run time 5.99549
