BEGIN Configuration File: ../../IL2236_project/verify/figure2/VAL/mesh88_lat
// $Id$

// Copyright (c) 2007-2015, Trustees of The Leland Stanford Junior University
// All rights reserved.
//
// Redistribution and use in source and binary forms, with or without
// modification, are permitted provided that the following conditions are met:
//
// Redistributions of source code must retain the above copyright notice, this
// list of conditions and the following disclaimer.
// Redistributions in binary form must reproduce the above copyright notice,
// this list of conditions and the following disclaimer in the documentation
// and/or other materials provided with the distribution.
//
// THIS SOFTWARE IS PROVIDED BY THE COPYRIGHT HOLDERS AND CONTRIBUTORS "AS IS"
// AND ANY EXPRESS OR IMPLIED WARRANTIES, INCLUDING, BUT NOT LIMITED TO, THE
// IMPLIED WARRANTIES OF MERCHANTABILITY AND FITNESS FOR A PARTICULAR PURPOSE
// ARE DISCLAIMED. IN NO EVENT SHALL THE COPYRIGHT OWNER OR CONTRIBUTORS BE
// LIABLE FOR ANY DIRECT, INDIRECT, INCIDENTAL, SPECIAL, EXEMPLARY, OR
// CONSEQUENTIAL DAMAGES (INCLUDING, BUT NOT LIMITED TO, PROCUREMENT OF
// SUBSTITUTE GOODS OR SERVICES; LOSS OF USE, DATA, OR PROFITS; OR BUSINESS
// INTERRUPTION) HOWEVER CAUSED AND ON ANY THEORY OF LIABILITY, WHETHER IN
// CONTRACT, STRICT LIABILITY, OR TORT (INCLUDING NEGLIGENCE OR OTHERWISE)
// ARISING IN ANY WAY OUT OF THE USE OF THIS SOFTWARE, EVEN IF ADVISED OF THE
// POSSIBILITY OF SUCH DAMAGE.

//8X8 mesh with 20 flits per packet under injection mode
//injection rate here is packet per cycle, NOT flit per cycle

// Topology

topology = mesh;
k = 8;
n = 2;

// Routing
routing_function = valiant;

// Flow control
num_vcs     = 8;
vc_buf_size = 8;
wait_for_tail_credit = 1;

// Router architecture
vc_allocator = islip;
sw_allocator = islip;
alloc_iters  = 1;

credit_delay   = 2;
routing_delay  = 0;
vc_alloc_delay = 1;
sw_alloc_delay = 1;

input_speedup     = 2;
output_speedup    = 1;
internal_speedup  = 1.0;


// Traffic
traffic = transpose;
packet_size = 20;


// Simulation
sim_type = latency;

injection_rate = .0120;


END Configuration File: ../../IL2236_project/verify/figure2/VAL/mesh88_lat
Class 0:
Packet latency average = 212.257
	minimum = 25
	maximum = 652
Network latency average = 195.242
	minimum = 25
	maximum = 606
Slowest packet = 226
Flit latency average = 129.06
	minimum = 6
	maximum = 556
Slowest flit = 4535
Fragmentation average = 86.8305
	minimum = 0
	maximum = 219
Injected packet rate average = 0.0110469
	minimum = 0.004 (at node 0)
	maximum = 0.02 (at node 36)
Accepted packet rate average = 0.00820313
	minimum = 0.004 (at node 0)
	maximum = 0.015 (at node 36)
Injected flit rate average = 0.217359
	minimum = 0.08 (at node 0)
	maximum = 0.393 (at node 36)
Accepted flit rate average= 0.175094
	minimum = 0.08 (at node 0)
	maximum = 0.303 (at node 36)
Injected packet length average = 19.6761
Accepted packet length average = 21.3448
Total in-flight flits = 2934 (0 measured)
latency change    = 1
throughput change = 1
Class 0:
Packet latency average = 273.558
	minimum = 25
	maximum = 1339
Network latency average = 236.668
	minimum = 25
	maximum = 1139
Slowest packet = 226
Flit latency average = 166.769
	minimum = 6
	maximum = 1056
Slowest flit = 11399
Fragmentation average = 86.275
	minimum = 0
	maximum = 226
Injected packet rate average = 0.0108203
	minimum = 0.0065 (at node 12)
	maximum = 0.0155 (at node 39)
Accepted packet rate average = 0.00914844
	minimum = 0.005 (at node 12)
	maximum = 0.0135 (at node 38)
Injected flit rate average = 0.213789
	minimum = 0.127 (at node 62)
	maximum = 0.308 (at node 39)
Accepted flit rate average= 0.187703
	minimum = 0.1105 (at node 15)
	maximum = 0.2805 (at node 38)
Injected packet length average = 19.7581
Accepted packet length average = 20.5175
Total in-flight flits = 3674 (0 measured)
latency change    = 0.224089
throughput change = 0.0671772
Class 0:
Packet latency average = 524.331
	minimum = 27
	maximum = 1669
Network latency average = 365.451
	minimum = 27
	maximum = 1585
Slowest packet = 654
Flit latency average = 283.783
	minimum = 6
	maximum = 1551
Slowest flit = 15879
Fragmentation average = 91.1326
	minimum = 0
	maximum = 241
Injected packet rate average = 0.00960937
	minimum = 0 (at node 16)
	maximum = 0.021 (at node 15)
Accepted packet rate average = 0.0093125
	minimum = 0.002 (at node 0)
	maximum = 0.021 (at node 47)
Injected flit rate average = 0.192109
	minimum = 0 (at node 16)
	maximum = 0.42 (at node 15)
Accepted flit rate average= 0.18725
	minimum = 0.037 (at node 16)
	maximum = 0.404 (at node 47)
Injected packet length average = 19.9919
Accepted packet length average = 20.1074
Total in-flight flits = 3990 (0 measured)
latency change    = 0.478271
throughput change = 0.00241989
Average latency for class 0 exceeded 500 cycles. Aborting simulation.
Too many sample periods needed to converge
Simulation unstable, ending ...
Total run time 2.50231
