BEGIN Configuration File: ../../IL2236_project/verify/figure2/VAL/mesh88_lat
// $Id$

// Copyright (c) 2007-2015, Trustees of The Leland Stanford Junior University
// All rights reserved.
//
// Redistribution and use in source and binary forms, with or without
// modification, are permitted provided that the following conditions are met:
//
// Redistributions of source code must retain the above copyright notice, this
// list of conditions and the following disclaimer.
// Redistributions in binary form must reproduce the above copyright notice,
// this list of conditions and the following disclaimer in the documentation
// and/or other materials provided with the distribution.
//
// THIS SOFTWARE IS PROVIDED BY THE COPYRIGHT HOLDERS AND CONTRIBUTORS "AS IS"
// AND ANY EXPRESS OR IMPLIED WARRANTIES, INCLUDING, BUT NOT LIMITED TO, THE
// IMPLIED WARRANTIES OF MERCHANTABILITY AND FITNESS FOR A PARTICULAR PURPOSE
// ARE DISCLAIMED. IN NO EVENT SHALL THE COPYRIGHT OWNER OR CONTRIBUTORS BE
// LIABLE FOR ANY DIRECT, INDIRECT, INCIDENTAL, SPECIAL, EXEMPLARY, OR
// CONSEQUENTIAL DAMAGES (INCLUDING, BUT NOT LIMITED TO, PROCUREMENT OF
// SUBSTITUTE GOODS OR SERVICES; LOSS OF USE, DATA, OR PROFITS; OR BUSINESS
// INTERRUPTION) HOWEVER CAUSED AND ON ANY THEORY OF LIABILITY, WHETHER IN
// CONTRACT, STRICT LIABILITY, OR TORT (INCLUDING NEGLIGENCE OR OTHERWISE)
// ARISING IN ANY WAY OUT OF THE USE OF THIS SOFTWARE, EVEN IF ADVISED OF THE
// POSSIBILITY OF SUCH DAMAGE.

//8X8 mesh with 20 flits per packet under injection mode
//injection rate here is packet per cycle, NOT flit per cycle

// Topology

topology = mesh;
k = 8;
n = 2;

// Routing
routing_function = valiant;

// Flow control
num_vcs     = 8;
vc_buf_size = 8;
wait_for_tail_credit = 1;

// Router architecture
vc_allocator = islip;
sw_allocator = islip;
alloc_iters  = 1;

credit_delay   = 2;
routing_delay  = 0;
vc_alloc_delay = 1;
sw_alloc_delay = 1;

input_speedup     = 2;
output_speedup    = 1;
internal_speedup  = 1.0;


// Traffic
traffic = transpose;
packet_size = 20;


// Simulation
sim_type = latency;

injection_rate = .0130;


END Configuration File: ../../IL2236_project/verify/figure2/VAL/mesh88_lat
Class 0:
Packet latency average = 233.155
	minimum = 25
	maximum = 664
Network latency average = 213.675
	minimum = 25
	maximum = 584
Slowest packet = 199
Flit latency average = 146.996
	minimum = 6
	maximum = 571
Slowest flit = 6258
Fragmentation average = 90.8825
	minimum = 0
	maximum = 231
Injected packet rate average = 0.0118281
	minimum = 0.006 (at node 6)
	maximum = 0.018 (at node 45)
Accepted packet rate average = 0.008375
	minimum = 0.002 (at node 37)
	maximum = 0.015 (at node 31)
Injected flit rate average = 0.231672
	minimum = 0.106 (at node 6)
	maximum = 0.36 (at node 47)
Accepted flit rate average= 0.179891
	minimum = 0.058 (at node 37)
	maximum = 0.313 (at node 31)
Injected packet length average = 19.5865
Accepted packet length average = 21.4795
Total in-flight flits = 3627 (0 measured)
latency change    = 1
throughput change = 1
Class 0:
Packet latency average = 333.238
	minimum = 25
	maximum = 1202
Network latency average = 273.799
	minimum = 25
	maximum = 935
Slowest packet = 361
Flit latency average = 198.967
	minimum = 6
	maximum = 963
Slowest flit = 15115
Fragmentation average = 93.8985
	minimum = 0
	maximum = 247
Injected packet rate average = 0.0115859
	minimum = 0.007 (at node 51)
	maximum = 0.0165 (at node 18)
Accepted packet rate average = 0.00961719
	minimum = 0.0055 (at node 30)
	maximum = 0.0145 (at node 51)
Injected flit rate average = 0.228656
	minimum = 0.134 (at node 51)
	maximum = 0.3205 (at node 18)
Accepted flit rate average= 0.199703
	minimum = 0.117 (at node 30)
	maximum = 0.2935 (at node 51)
Injected packet length average = 19.7357
Accepted packet length average = 20.7652
Total in-flight flits = 4098 (0 measured)
latency change    = 0.300335
throughput change = 0.0992098
Class 0:
Packet latency average = 570.478
	minimum = 29
	maximum = 1718
Network latency average = 364.236
	minimum = 25
	maximum = 1354
Slowest packet = 755
Flit latency average = 281.768
	minimum = 6
	maximum = 1285
Slowest flit = 23019
Fragmentation average = 98.0101
	minimum = 0
	maximum = 296
Injected packet rate average = 0.0110156
	minimum = 0.003 (at node 50)
	maximum = 0.019 (at node 1)
Accepted packet rate average = 0.0107812
	minimum = 0.003 (at node 38)
	maximum = 0.02 (at node 7)
Injected flit rate average = 0.220469
	minimum = 0.068 (at node 50)
	maximum = 0.382 (at node 1)
Accepted flit rate average= 0.211266
	minimum = 0.06 (at node 38)
	maximum = 0.377 (at node 7)
Injected packet length average = 20.0142
Accepted packet length average = 19.5957
Total in-flight flits = 4677 (0 measured)
latency change    = 0.415862
throughput change = 0.0547297
Average latency for class 0 exceeded 500 cycles. Aborting simulation.
Too many sample periods needed to converge
Simulation unstable, ending ...
Total run time 2.77371
