BEGIN Configuration File: ../../IL2236_project/verify/figure2/VAL/mesh88_lat
// $Id$

// Copyright (c) 2007-2015, Trustees of The Leland Stanford Junior University
// All rights reserved.
//
// Redistribution and use in source and binary forms, with or without
// modification, are permitted provided that the following conditions are met:
//
// Redistributions of source code must retain the above copyright notice, this
// list of conditions and the following disclaimer.
// Redistributions in binary form must reproduce the above copyright notice,
// this list of conditions and the following disclaimer in the documentation
// and/or other materials provided with the distribution.
//
// THIS SOFTWARE IS PROVIDED BY THE COPYRIGHT HOLDERS AND CONTRIBUTORS "AS IS"
// AND ANY EXPRESS OR IMPLIED WARRANTIES, INCLUDING, BUT NOT LIMITED TO, THE
// IMPLIED WARRANTIES OF MERCHANTABILITY AND FITNESS FOR A PARTICULAR PURPOSE
// ARE DISCLAIMED. IN NO EVENT SHALL THE COPYRIGHT OWNER OR CONTRIBUTORS BE
// LIABLE FOR ANY DIRECT, INDIRECT, INCIDENTAL, SPECIAL, EXEMPLARY, OR
// CONSEQUENTIAL DAMAGES (INCLUDING, BUT NOT LIMITED TO, PROCUREMENT OF
// SUBSTITUTE GOODS OR SERVICES; LOSS OF USE, DATA, OR PROFITS; OR BUSINESS
// INTERRUPTION) HOWEVER CAUSED AND ON ANY THEORY OF LIABILITY, WHETHER IN
// CONTRACT, STRICT LIABILITY, OR TORT (INCLUDING NEGLIGENCE OR OTHERWISE)
// ARISING IN ANY WAY OUT OF THE USE OF THIS SOFTWARE, EVEN IF ADVISED OF THE
// POSSIBILITY OF SUCH DAMAGE.

//8X8 mesh with 20 flits per packet under injection mode
//injection rate here is packet per cycle, NOT flit per cycle

// Topology

topology = mesh;
k = 8;
n = 2;

// Routing
routing_function = valiant;

// Flow control
num_vcs     = 8;
vc_buf_size = 8;
wait_for_tail_credit = 1;

// Router architecture
vc_allocator = islip;
sw_allocator = islip;
alloc_iters  = 1;

credit_delay   = 2;
routing_delay  = 0;
vc_alloc_delay = 1;
sw_alloc_delay = 1;

input_speedup     = 2;
output_speedup    = 1;
internal_speedup  = 1.0;


// Traffic
traffic = transpose;
packet_size = 20;


// Simulation
sim_type = latency;

injection_rate = .0145;


END Configuration File: ../../IL2236_project/verify/figure2/VAL/mesh88_lat
Class 0:
Packet latency average = 251.412
	minimum = 41
	maximum = 725
Network latency average = 229.938
	minimum = 41
	maximum = 680
Slowest packet = 211
Flit latency average = 159.101
	minimum = 14
	maximum = 616
Slowest flit = 4235
Fragmentation average = 96.4099
	minimum = 5
	maximum = 289
Injected packet rate average = 0.0125938
	minimum = 0.006 (at node 21)
	maximum = 0.02 (at node 2)
Accepted packet rate average = 0.0085
	minimum = 0.004 (at node 55)
	maximum = 0.016 (at node 11)
Injected flit rate average = 0.24575
	minimum = 0.116 (at node 21)
	maximum = 0.398 (at node 2)
Accepted flit rate average= 0.181922
	minimum = 0.08 (at node 55)
	maximum = 0.324 (at node 16)
Injected packet length average = 19.5136
Accepted packet length average = 21.4026
Total in-flight flits = 4477 (0 measured)
latency change    = 1
throughput change = 1
Class 0:
Packet latency average = 395.565
	minimum = 34
	maximum = 1291
Network latency average = 300.273
	minimum = 34
	maximum = 1179
Slowest packet = 587
Flit latency average = 221.344
	minimum = 6
	maximum = 1130
Slowest flit = 11830
Fragmentation average = 95.477
	minimum = 1
	maximum = 289
Injected packet rate average = 0.0115312
	minimum = 0.006 (at node 38)
	maximum = 0.016 (at node 2)
Accepted packet rate average = 0.0095
	minimum = 0.005 (at node 52)
	maximum = 0.0145 (at node 16)
Injected flit rate average = 0.227008
	minimum = 0.118 (at node 38)
	maximum = 0.318 (at node 8)
Accepted flit rate average= 0.194906
	minimum = 0.1 (at node 52)
	maximum = 0.2975 (at node 16)
Injected packet length average = 19.6863
Accepted packet length average = 20.5164
Total in-flight flits = 4572 (0 measured)
latency change    = 0.364424
throughput change = 0.0666186
Class 0:
Packet latency average = 770.957
	minimum = 58
	maximum = 1904
Network latency average = 412.151
	minimum = 47
	maximum = 1659
Slowest packet = 863
Flit latency average = 325.861
	minimum = 14
	maximum = 1817
Slowest flit = 18055
Fragmentation average = 91.6683
	minimum = 4
	maximum = 265
Injected packet rate average = 0.0100625
	minimum = 0.003 (at node 3)
	maximum = 0.019 (at node 51)
Accepted packet rate average = 0.00975
	minimum = 0.001 (at node 49)
	maximum = 0.022 (at node 1)
Injected flit rate average = 0.201328
	minimum = 0.059 (at node 3)
	maximum = 0.38 (at node 51)
Accepted flit rate average= 0.197375
	minimum = 0.038 (at node 49)
	maximum = 0.425 (at node 1)
Injected packet length average = 20.0078
Accepted packet length average = 20.2436
Total in-flight flits = 4820 (0 measured)
latency change    = 0.486917
throughput change = 0.0125079
Average latency for class 0 exceeded 500 cycles. Aborting simulation.
Too many sample periods needed to converge
Simulation unstable, ending ...
Total run time 2.77753
