BEGIN Configuration File: ../../IL2236_project/verify/figure2/VAL/mesh88_lat
// $Id$

// Copyright (c) 2007-2015, Trustees of The Leland Stanford Junior University
// All rights reserved.
//
// Redistribution and use in source and binary forms, with or without
// modification, are permitted provided that the following conditions are met:
//
// Redistributions of source code must retain the above copyright notice, this
// list of conditions and the following disclaimer.
// Redistributions in binary form must reproduce the above copyright notice,
// this list of conditions and the following disclaimer in the documentation
// and/or other materials provided with the distribution.
//
// THIS SOFTWARE IS PROVIDED BY THE COPYRIGHT HOLDERS AND CONTRIBUTORS "AS IS"
// AND ANY EXPRESS OR IMPLIED WARRANTIES, INCLUDING, BUT NOT LIMITED TO, THE
// IMPLIED WARRANTIES OF MERCHANTABILITY AND FITNESS FOR A PARTICULAR PURPOSE
// ARE DISCLAIMED. IN NO EVENT SHALL THE COPYRIGHT OWNER OR CONTRIBUTORS BE
// LIABLE FOR ANY DIRECT, INDIRECT, INCIDENTAL, SPECIAL, EXEMPLARY, OR
// CONSEQUENTIAL DAMAGES (INCLUDING, BUT NOT LIMITED TO, PROCUREMENT OF
// SUBSTITUTE GOODS OR SERVICES; LOSS OF USE, DATA, OR PROFITS; OR BUSINESS
// INTERRUPTION) HOWEVER CAUSED AND ON ANY THEORY OF LIABILITY, WHETHER IN
// CONTRACT, STRICT LIABILITY, OR TORT (INCLUDING NEGLIGENCE OR OTHERWISE)
// ARISING IN ANY WAY OUT OF THE USE OF THIS SOFTWARE, EVEN IF ADVISED OF THE
// POSSIBILITY OF SUCH DAMAGE.

//8X8 mesh with 20 flits per packet under injection mode
//injection rate here is packet per cycle, NOT flit per cycle

// Topology

topology = mesh;
k = 8;
n = 2;

// Routing
routing_function = valiant;

// Flow control
num_vcs     = 8;
vc_buf_size = 8;
wait_for_tail_credit = 1;

// Router architecture
vc_allocator = islip;
sw_allocator = islip;
alloc_iters  = 1;

credit_delay   = 2;
routing_delay  = 0;
vc_alloc_delay = 1;
sw_alloc_delay = 1;

input_speedup     = 2;
output_speedup    = 1;
internal_speedup  = 1.0;


// Traffic
traffic = transpose;
packet_size = 20;


// Simulation
sim_type = latency;

injection_rate = .0155;


END Configuration File: ../../IL2236_project/verify/figure2/VAL/mesh88_lat
Class 0:
Packet latency average = 275.507
	minimum = 33
	maximum = 891
Network latency average = 238.199
	minimum = 33
	maximum = 874
Slowest packet = 41
Flit latency average = 166.141
	minimum = 6
	maximum = 841
Slowest flit = 839
Fragmentation average = 98.4024
	minimum = 0
	maximum = 241
Injected packet rate average = 0.0129844
	minimum = 0.007 (at node 22)
	maximum = 0.019 (at node 0)
Accepted packet rate average = 0.00896875
	minimum = 0.003 (at node 40)
	maximum = 0.015 (at node 0)
Injected flit rate average = 0.252641
	minimum = 0.14 (at node 22)
	maximum = 0.372 (at node 0)
Accepted flit rate average= 0.192812
	minimum = 0.068 (at node 40)
	maximum = 0.314 (at node 27)
Injected packet length average = 19.4573
Accepted packet length average = 21.4983
Total in-flight flits = 4280 (0 measured)
latency change    = 1
throughput change = 1
Class 0:
Packet latency average = 424.359
	minimum = 33
	maximum = 1291
Network latency average = 308.002
	minimum = 27
	maximum = 1161
Slowest packet = 327
Flit latency average = 228.968
	minimum = 6
	maximum = 1121
Slowest flit = 6555
Fragmentation average = 96.943
	minimum = 0
	maximum = 264
Injected packet rate average = 0.0119609
	minimum = 0.007 (at node 24)
	maximum = 0.0185 (at node 0)
Accepted packet rate average = 0.00972656
	minimum = 0.006 (at node 3)
	maximum = 0.0145 (at node 27)
Injected flit rate average = 0.235836
	minimum = 0.138 (at node 24)
	maximum = 0.368 (at node 0)
Accepted flit rate average= 0.200258
	minimum = 0.12 (at node 3)
	maximum = 0.303 (at node 36)
Injected packet length average = 19.7172
Accepted packet length average = 20.5888
Total in-flight flits = 4987 (0 measured)
latency change    = 0.350769
throughput change = 0.0371786
Average latency for class 0 exceeded 500 cycles. Aborting simulation.
Too many sample periods needed to converge
Simulation unstable, ending ...
Total run time 1.88563
