BEGIN Configuration File: ../../IL2236_project/verify/figure2/VAL/mesh88_lat
// $Id$

// Copyright (c) 2007-2015, Trustees of The Leland Stanford Junior University
// All rights reserved.
//
// Redistribution and use in source and binary forms, with or without
// modification, are permitted provided that the following conditions are met:
//
// Redistributions of source code must retain the above copyright notice, this
// list of conditions and the following disclaimer.
// Redistributions in binary form must reproduce the above copyright notice,
// this list of conditions and the following disclaimer in the documentation
// and/or other materials provided with the distribution.
//
// THIS SOFTWARE IS PROVIDED BY THE COPYRIGHT HOLDERS AND CONTRIBUTORS "AS IS"
// AND ANY EXPRESS OR IMPLIED WARRANTIES, INCLUDING, BUT NOT LIMITED TO, THE
// IMPLIED WARRANTIES OF MERCHANTABILITY AND FITNESS FOR A PARTICULAR PURPOSE
// ARE DISCLAIMED. IN NO EVENT SHALL THE COPYRIGHT OWNER OR CONTRIBUTORS BE
// LIABLE FOR ANY DIRECT, INDIRECT, INCIDENTAL, SPECIAL, EXEMPLARY, OR
// CONSEQUENTIAL DAMAGES (INCLUDING, BUT NOT LIMITED TO, PROCUREMENT OF
// SUBSTITUTE GOODS OR SERVICES; LOSS OF USE, DATA, OR PROFITS; OR BUSINESS
// INTERRUPTION) HOWEVER CAUSED AND ON ANY THEORY OF LIABILITY, WHETHER IN
// CONTRACT, STRICT LIABILITY, OR TORT (INCLUDING NEGLIGENCE OR OTHERWISE)
// ARISING IN ANY WAY OUT OF THE USE OF THIS SOFTWARE, EVEN IF ADVISED OF THE
// POSSIBILITY OF SUCH DAMAGE.

//8X8 mesh with 20 flits per packet under injection mode
//injection rate here is packet per cycle, NOT flit per cycle

// Topology

topology = mesh;
k = 8;
n = 2;

// Routing
routing_function = valiant;

// Flow control
num_vcs     = 8;
vc_buf_size = 8;
wait_for_tail_credit = 1;

// Router architecture
vc_allocator = islip;
sw_allocator = islip;
alloc_iters  = 1;

credit_delay   = 2;
routing_delay  = 0;
vc_alloc_delay = 1;
sw_alloc_delay = 1;

input_speedup     = 2;
output_speedup    = 1;
internal_speedup  = 1.0;


// Traffic
traffic = transpose;
packet_size = 20;


// Simulation
sim_type = latency;

injection_rate = .0150;


END Configuration File: ../../IL2236_project/verify/figure2/VAL/mesh88_lat
Class 0:
Packet latency average = 254.488
	minimum = 28
	maximum = 774
Network latency average = 232.7
	minimum = 28
	maximum = 759
Slowest packet = 118
Flit latency average = 165.873
	minimum = 6
	maximum = 736
Slowest flit = 2379
Fragmentation average = 93.1879
	minimum = 0
	maximum = 277
Injected packet rate average = 0.0122813
	minimum = 0.006 (at node 38)
	maximum = 0.022 (at node 48)
Accepted packet rate average = 0.00823438
	minimum = 0.003 (at node 9)
	maximum = 0.016 (at node 6)
Injected flit rate average = 0.239609
	minimum = 0.108 (at node 38)
	maximum = 0.423 (at node 48)
Accepted flit rate average= 0.178484
	minimum = 0.067 (at node 9)
	maximum = 0.349 (at node 11)
Injected packet length average = 19.5102
Accepted packet length average = 21.6755
Total in-flight flits = 4297 (0 measured)
latency change    = 1
throughput change = 1
Class 0:
Packet latency average = 405.866
	minimum = 28
	maximum = 1517
Network latency average = 297.857
	minimum = 25
	maximum = 1338
Slowest packet = 526
Flit latency average = 219.655
	minimum = 6
	maximum = 1319
Slowest flit = 10539
Fragmentation average = 94.0742
	minimum = 0
	maximum = 277
Injected packet rate average = 0.0115937
	minimum = 0.005 (at node 50)
	maximum = 0.0195 (at node 45)
Accepted packet rate average = 0.00947656
	minimum = 0.0045 (at node 22)
	maximum = 0.0175 (at node 6)
Injected flit rate average = 0.228297
	minimum = 0.094 (at node 50)
	maximum = 0.39 (at node 48)
Accepted flit rate average= 0.195211
	minimum = 0.09 (at node 22)
	maximum = 0.3675 (at node 6)
Injected packet length average = 19.6914
Accepted packet length average = 20.5993
Total in-flight flits = 4693 (0 measured)
latency change    = 0.372977
throughput change = 0.0856846
Average latency for class 0 exceeded 500 cycles. Aborting simulation.
Too many sample periods needed to converge
Simulation unstable, ending ...
Total run time 1.80792
