BEGIN Configuration File: ../../IL2236_project/verify/figure2/VAL/mesh88_lat
// $Id$

// Copyright (c) 2007-2015, Trustees of The Leland Stanford Junior University
// All rights reserved.
//
// Redistribution and use in source and binary forms, with or without
// modification, are permitted provided that the following conditions are met:
//
// Redistributions of source code must retain the above copyright notice, this
// list of conditions and the following disclaimer.
// Redistributions in binary form must reproduce the above copyright notice,
// this list of conditions and the following disclaimer in the documentation
// and/or other materials provided with the distribution.
//
// THIS SOFTWARE IS PROVIDED BY THE COPYRIGHT HOLDERS AND CONTRIBUTORS "AS IS"
// AND ANY EXPRESS OR IMPLIED WARRANTIES, INCLUDING, BUT NOT LIMITED TO, THE
// IMPLIED WARRANTIES OF MERCHANTABILITY AND FITNESS FOR A PARTICULAR PURPOSE
// ARE DISCLAIMED. IN NO EVENT SHALL THE COPYRIGHT OWNER OR CONTRIBUTORS BE
// LIABLE FOR ANY DIRECT, INDIRECT, INCIDENTAL, SPECIAL, EXEMPLARY, OR
// CONSEQUENTIAL DAMAGES (INCLUDING, BUT NOT LIMITED TO, PROCUREMENT OF
// SUBSTITUTE GOODS OR SERVICES; LOSS OF USE, DATA, OR PROFITS; OR BUSINESS
// INTERRUPTION) HOWEVER CAUSED AND ON ANY THEORY OF LIABILITY, WHETHER IN
// CONTRACT, STRICT LIABILITY, OR TORT (INCLUDING NEGLIGENCE OR OTHERWISE)
// ARISING IN ANY WAY OUT OF THE USE OF THIS SOFTWARE, EVEN IF ADVISED OF THE
// POSSIBILITY OF SUCH DAMAGE.

//8X8 mesh with 20 flits per packet under injection mode
//injection rate here is packet per cycle, NOT flit per cycle

// Topology

topology = mesh;
k = 8;
n = 2;

// Routing
routing_function = valiant;

// Flow control
num_vcs     = 8;
vc_buf_size = 8;
wait_for_tail_credit = 1;

// Router architecture
vc_allocator = islip;
sw_allocator = islip;
alloc_iters  = 1;

credit_delay   = 2;
routing_delay  = 0;
vc_alloc_delay = 1;
sw_alloc_delay = 1;

input_speedup     = 2;
output_speedup    = 1;
internal_speedup  = 1.0;


// Traffic
traffic = transpose;
packet_size = 20;


// Simulation
sim_type = latency;

injection_rate = .0185;


END Configuration File: ../../IL2236_project/verify/figure2/VAL/mesh88_lat
Class 0:
Packet latency average = 298.438
	minimum = 48
	maximum = 741
Network latency average = 258.251
	minimum = 43
	maximum = 711
Slowest packet = 130
Flit latency average = 187.283
	minimum = 14
	maximum = 865
Slowest flit = 2726
Fragmentation average = 97.8581
	minimum = 8
	maximum = 273
Injected packet rate average = 0.0135312
	minimum = 0.007 (at node 33)
	maximum = 0.024 (at node 16)
Accepted packet rate average = 0.00903125
	minimum = 0.004 (at node 12)
	maximum = 0.016 (at node 2)
Injected flit rate average = 0.263609
	minimum = 0.136 (at node 33)
	maximum = 0.476 (at node 16)
Accepted flit rate average= 0.193156
	minimum = 0.08 (at node 12)
	maximum = 0.338 (at node 43)
Injected packet length average = 19.4815
Accepted packet length average = 21.3875
Total in-flight flits = 4958 (0 measured)
latency change    = 1
throughput change = 1
Class 0:
Packet latency average = 497.229
	minimum = 35
	maximum = 1490
Network latency average = 332.208
	minimum = 35
	maximum = 1126
Slowest packet = 134
Flit latency average = 250.98
	minimum = 6
	maximum = 1138
Slowest flit = 14887
Fragmentation average = 95.4548
	minimum = 2
	maximum = 292
Injected packet rate average = 0.0117578
	minimum = 0.006 (at node 61)
	maximum = 0.0205 (at node 16)
Accepted packet rate average = 0.00977344
	minimum = 0.0055 (at node 47)
	maximum = 0.0165 (at node 2)
Injected flit rate average = 0.231656
	minimum = 0.118 (at node 61)
	maximum = 0.408 (at node 16)
Accepted flit rate average= 0.201367
	minimum = 0.11 (at node 47)
	maximum = 0.3485 (at node 2)
Injected packet length average = 19.7023
Accepted packet length average = 20.6035
Total in-flight flits = 4325 (0 measured)
latency change    = 0.399799
throughput change = 0.0407759
Average latency for class 0 exceeded 500 cycles. Aborting simulation.
Too many sample periods needed to converge
Simulation unstable, ending ...
Total run time 1.90692
