BEGIN Configuration File: ../../IL2236_project/verify/figure2/VAL/mesh88_lat
// $Id$

// Copyright (c) 2007-2015, Trustees of The Leland Stanford Junior University
// All rights reserved.
//
// Redistribution and use in source and binary forms, with or without
// modification, are permitted provided that the following conditions are met:
//
// Redistributions of source code must retain the above copyright notice, this
// list of conditions and the following disclaimer.
// Redistributions in binary form must reproduce the above copyright notice,
// this list of conditions and the following disclaimer in the documentation
// and/or other materials provided with the distribution.
//
// THIS SOFTWARE IS PROVIDED BY THE COPYRIGHT HOLDERS AND CONTRIBUTORS "AS IS"
// AND ANY EXPRESS OR IMPLIED WARRANTIES, INCLUDING, BUT NOT LIMITED TO, THE
// IMPLIED WARRANTIES OF MERCHANTABILITY AND FITNESS FOR A PARTICULAR PURPOSE
// ARE DISCLAIMED. IN NO EVENT SHALL THE COPYRIGHT OWNER OR CONTRIBUTORS BE
// LIABLE FOR ANY DIRECT, INDIRECT, INCIDENTAL, SPECIAL, EXEMPLARY, OR
// CONSEQUENTIAL DAMAGES (INCLUDING, BUT NOT LIMITED TO, PROCUREMENT OF
// SUBSTITUTE GOODS OR SERVICES; LOSS OF USE, DATA, OR PROFITS; OR BUSINESS
// INTERRUPTION) HOWEVER CAUSED AND ON ANY THEORY OF LIABILITY, WHETHER IN
// CONTRACT, STRICT LIABILITY, OR TORT (INCLUDING NEGLIGENCE OR OTHERWISE)
// ARISING IN ANY WAY OUT OF THE USE OF THIS SOFTWARE, EVEN IF ADVISED OF THE
// POSSIBILITY OF SUCH DAMAGE.

//8X8 mesh with 20 flits per packet under injection mode
//injection rate here is packet per cycle, NOT flit per cycle

// Topology

topology = mesh;
k = 8;
n = 2;

// Routing
routing_function = valiant;

// Flow control
num_vcs     = 8;
vc_buf_size = 8;
wait_for_tail_credit = 1;

// Router architecture
vc_allocator = islip;
sw_allocator = islip;
alloc_iters  = 1;

credit_delay   = 2;
routing_delay  = 0;
vc_alloc_delay = 1;
sw_alloc_delay = 1;

input_speedup     = 2;
output_speedup    = 1;
internal_speedup  = 1.0;


// Traffic
traffic = transpose;
packet_size = 20;


// Simulation
sim_type = latency;

injection_rate = .0190;


END Configuration File: ../../IL2236_project/verify/figure2/VAL/mesh88_lat
Class 0:
Packet latency average = 305.173
	minimum = 49
	maximum = 837
Network latency average = 257.254
	minimum = 27
	maximum = 713
Slowest packet = 160
Flit latency average = 184.339
	minimum = 6
	maximum = 776
Slowest flit = 3827
Fragmentation average = 97.2837
	minimum = 0
	maximum = 289
Injected packet rate average = 0.0135
	minimum = 0.008 (at node 21)
	maximum = 0.023 (at node 0)
Accepted packet rate average = 0.00892187
	minimum = 0.004 (at node 20)
	maximum = 0.015 (at node 9)
Injected flit rate average = 0.262109
	minimum = 0.156 (at node 21)
	maximum = 0.456 (at node 0)
Accepted flit rate average= 0.189984
	minimum = 0.09 (at node 20)
	maximum = 0.327 (at node 9)
Injected packet length average = 19.4155
Accepted packet length average = 21.2942
Total in-flight flits = 5121 (0 measured)
latency change    = 1
throughput change = 1
Class 0:
Packet latency average = 517.303
	minimum = 49
	maximum = 1639
Network latency average = 336.111
	minimum = 25
	maximum = 1083
Slowest packet = 160
Flit latency average = 256.745
	minimum = 6
	maximum = 1443
Slowest flit = 9727
Fragmentation average = 94.3893
	minimum = 0
	maximum = 289
Injected packet rate average = 0.0118594
	minimum = 0.006 (at node 18)
	maximum = 0.02 (at node 0)
Accepted packet rate average = 0.00953125
	minimum = 0.005 (at node 42)
	maximum = 0.016 (at node 0)
Injected flit rate average = 0.233422
	minimum = 0.118 (at node 18)
	maximum = 0.398 (at node 0)
Accepted flit rate average= 0.196375
	minimum = 0.11 (at node 18)
	maximum = 0.3225 (at node 0)
Injected packet length average = 19.6825
Accepted packet length average = 20.6033
Total in-flight flits = 5224 (0 measured)
latency change    = 0.410069
throughput change = 0.032543
Average latency for class 0 exceeded 500 cycles. Aborting simulation.
Too many sample periods needed to converge
Simulation unstable, ending ...
Total run time 1.89064
