BEGIN Configuration File: ../../IL2236_project/verify/figure2/VAL/mesh88_lat
// $Id$

// Copyright (c) 2007-2015, Trustees of The Leland Stanford Junior University
// All rights reserved.
//
// Redistribution and use in source and binary forms, with or without
// modification, are permitted provided that the following conditions are met:
//
// Redistributions of source code must retain the above copyright notice, this
// list of conditions and the following disclaimer.
// Redistributions in binary form must reproduce the above copyright notice,
// this list of conditions and the following disclaimer in the documentation
// and/or other materials provided with the distribution.
//
// THIS SOFTWARE IS PROVIDED BY THE COPYRIGHT HOLDERS AND CONTRIBUTORS "AS IS"
// AND ANY EXPRESS OR IMPLIED WARRANTIES, INCLUDING, BUT NOT LIMITED TO, THE
// IMPLIED WARRANTIES OF MERCHANTABILITY AND FITNESS FOR A PARTICULAR PURPOSE
// ARE DISCLAIMED. IN NO EVENT SHALL THE COPYRIGHT OWNER OR CONTRIBUTORS BE
// LIABLE FOR ANY DIRECT, INDIRECT, INCIDENTAL, SPECIAL, EXEMPLARY, OR
// CONSEQUENTIAL DAMAGES (INCLUDING, BUT NOT LIMITED TO, PROCUREMENT OF
// SUBSTITUTE GOODS OR SERVICES; LOSS OF USE, DATA, OR PROFITS; OR BUSINESS
// INTERRUPTION) HOWEVER CAUSED AND ON ANY THEORY OF LIABILITY, WHETHER IN
// CONTRACT, STRICT LIABILITY, OR TORT (INCLUDING NEGLIGENCE OR OTHERWISE)
// ARISING IN ANY WAY OUT OF THE USE OF THIS SOFTWARE, EVEN IF ADVISED OF THE
// POSSIBILITY OF SUCH DAMAGE.

//8X8 mesh with 20 flits per packet under injection mode
//injection rate here is packet per cycle, NOT flit per cycle

// Topology

topology = mesh;
k = 8;
n = 2;

// Routing
routing_function = valiant;

// Flow control
num_vcs     = 8;
vc_buf_size = 8;
wait_for_tail_credit = 1;

// Router architecture
vc_allocator = islip;
sw_allocator = islip;
alloc_iters  = 1;

credit_delay   = 2;
routing_delay  = 0;
vc_alloc_delay = 1;
sw_alloc_delay = 1;

input_speedup     = 2;
output_speedup    = 1;
internal_speedup  = 1.0;


// Traffic
traffic = transpose;
packet_size = 20;


// Simulation
sim_type = latency;

injection_rate = .0200;


END Configuration File: ../../IL2236_project/verify/figure2/VAL/mesh88_lat
Class 0:
Packet latency average = 322.403
	minimum = 41
	maximum = 885
Network latency average = 267.387
	minimum = 33
	maximum = 871
Slowest packet = 128
Flit latency average = 195.897
	minimum = 6
	maximum = 904
Slowest flit = 1947
Fragmentation average = 94.0349
	minimum = 0
	maximum = 247
Injected packet rate average = 0.0132812
	minimum = 0.004 (at node 10)
	maximum = 0.022 (at node 63)
Accepted packet rate average = 0.00895312
	minimum = 0.002 (at node 17)
	maximum = 0.017 (at node 63)
Injected flit rate average = 0.258547
	minimum = 0.076 (at node 10)
	maximum = 0.427 (at node 63)
Accepted flit rate average= 0.1895
	minimum = 0.047 (at node 17)
	maximum = 0.346 (at node 63)
Injected packet length average = 19.4671
Accepted packet length average = 21.1658
Total in-flight flits = 4872 (0 measured)
latency change    = 1
throughput change = 1
Class 0:
Packet latency average = 541.249
	minimum = 41
	maximum = 1548
Network latency average = 340.131
	minimum = 28
	maximum = 1253
Slowest packet = 180
Flit latency average = 260.162
	minimum = 6
	maximum = 1600
Slowest flit = 7723
Fragmentation average = 91.799
	minimum = 0
	maximum = 260
Injected packet rate average = 0.0118281
	minimum = 0.004 (at node 10)
	maximum = 0.0205 (at node 40)
Accepted packet rate average = 0.00940625
	minimum = 0.0025 (at node 17)
	maximum = 0.0165 (at node 5)
Injected flit rate average = 0.233055
	minimum = 0.078 (at node 10)
	maximum = 0.402 (at node 40)
Accepted flit rate average= 0.193953
	minimum = 0.056 (at node 17)
	maximum = 0.3465 (at node 5)
Injected packet length average = 19.7034
Accepted packet length average = 20.6196
Total in-flight flits = 5454 (0 measured)
latency change    = 0.404335
throughput change = 0.0229598
Average latency for class 0 exceeded 500 cycles. Aborting simulation.
Too many sample periods needed to converge
Simulation unstable, ending ...
Total run time 1.86447
