BEGIN Configuration File: ../../IL2236_project/verify/figure7/216/mesh88_lat
// $Id$

// Copyright (c) 2007-2015, Trustees of The Leland Stanford Junior University
// All rights reserved.
//
// Redistribution and use in source and binary forms, with or without
// modification, are permitted provided that the following conditions are met:
//
// Redistributions of source code must retain the above copyright notice, this
// list of conditions and the following disclaimer.
// Redistributions in binary form must reproduce the above copyright notice,
// this list of conditions and the following disclaimer in the documentation
// and/or other materials provided with the distribution.
//
// THIS SOFTWARE IS PROVIDED BY THE COPYRIGHT HOLDERS AND CONTRIBUTORS "AS IS"
// AND ANY EXPRESS OR IMPLIED WARRANTIES, INCLUDING, BUT NOT LIMITED TO, THE
// IMPLIED WARRANTIES OF MERCHANTABILITY AND FITNESS FOR A PARTICULAR PURPOSE
// ARE DISCLAIMED. IN NO EVENT SHALL THE COPYRIGHT OWNER OR CONTRIBUTORS BE
// LIABLE FOR ANY DIRECT, INDIRECT, INCIDENTAL, SPECIAL, EXEMPLARY, OR
// CONSEQUENTIAL DAMAGES (INCLUDING, BUT NOT LIMITED TO, PROCUREMENT OF
// SUBSTITUTE GOODS OR SERVICES; LOSS OF USE, DATA, OR PROFITS; OR BUSINESS
// INTERRUPTION) HOWEVER CAUSED AND ON ANY THEORY OF LIABILITY, WHETHER IN
// CONTRACT, STRICT LIABILITY, OR TORT (INCLUDING NEGLIGENCE OR OTHERWISE)
// ARISING IN ANY WAY OUT OF THE USE OF THIS SOFTWARE, EVEN IF ADVISED OF THE
// POSSIBILITY OF SUCH DAMAGE.

//8X8 mesh with 20 flits per packet under injection mode
//injection rate here is packet per cycle, NOT flit per cycle

// Topology

topology = mesh;
k = 8;
n = 2;

// Routing
routing_function = dor;

// Flow control
num_vcs     = 2;
vc_buf_size = 16;
wait_for_tail_credit = 1;

// Router architecture
vc_allocator = islip;
sw_allocator = islip;
alloc_iters  = 1;

credit_delay   = 2;
routing_delay  = 0;
vc_alloc_delay = 1;
sw_alloc_delay = 1;

input_speedup     = 2;
output_speedup    = 1;
internal_speedup  = 1.0;


// Traffic
traffic = uniform;
packet_size = 20;


// Simulation
sim_type = latency;

injection_rate = .0020;


END Configuration File: ../../IL2236_project/verify/figure7/216/mesh88_lat
Class 0:
Packet latency average = 51.4018
	minimum = 29
	maximum = 104
Network latency average = 51.0625
	minimum = 29
	maximum = 104
Slowest packet = 78
Flit latency average = 30.5502
	minimum = 10
	maximum = 85
Slowest flit = 1560
Fragmentation average = 2.77679
	minimum = 0
	maximum = 18
Injected packet rate average = 0.0018125
	minimum = 0 (at node 1)
	maximum = 0.006 (at node 27)
Accepted packet rate average = 0.00175
	minimum = 0 (at node 20)
	maximum = 0.007 (at node 18)
Injected flit rate average = 0.035875
	minimum = 0 (at node 1)
	maximum = 0.12 (at node 27)
Accepted flit rate average= 0.0350156
	minimum = 0 (at node 20)
	maximum = 0.14 (at node 18)
Injected packet length average = 19.7931
Accepted packet length average = 20.0089
Total in-flight flits = 79 (0 measured)
latency change    = 1
throughput change = 1
Class 0:
Packet latency average = 49.0126
	minimum = 25
	maximum = 104
Network latency average = 48.5
	minimum = 25
	maximum = 104
Slowest packet = 78
Flit latency average = 28.2947
	minimum = 6
	maximum = 85
Slowest flit = 1560
Fragmentation average = 2.21429
	minimum = 0
	maximum = 18
Injected packet rate average = 0.00189062
	minimum = 0 (at node 9)
	maximum = 0.004 (at node 27)
Accepted packet rate average = 0.00185937
	minimum = 0 (at node 29)
	maximum = 0.0045 (at node 18)
Injected flit rate average = 0.0377422
	minimum = 0 (at node 9)
	maximum = 0.08 (at node 27)
Accepted flit rate average= 0.0372188
	minimum = 0 (at node 29)
	maximum = 0.092 (at node 18)
Injected packet length average = 19.9628
Accepted packet length average = 20.0168
Total in-flight flits = 76 (0 measured)
latency change    = 0.0487462
throughput change = 0.059194
Class 0:
Packet latency average = 47.8739
	minimum = 29
	maximum = 81
Network latency average = 47.6134
	minimum = 29
	maximum = 81
Slowest packet = 289
Flit latency average = 27.152
	minimum = 10
	maximum = 62
Slowest flit = 5780
Fragmentation average = 2.51261
	minimum = 0
	maximum = 18
Injected packet rate average = 0.00190625
	minimum = 0 (at node 2)
	maximum = 0.005 (at node 11)
Accepted packet rate average = 0.00185937
	minimum = 0 (at node 7)
	maximum = 0.005 (at node 53)
Injected flit rate average = 0.0379531
	minimum = 0 (at node 2)
	maximum = 0.1 (at node 11)
Accepted flit rate average= 0.0379375
	minimum = 0 (at node 7)
	maximum = 0.111 (at node 53)
Injected packet length average = 19.9098
Accepted packet length average = 20.4034
Total in-flight flits = 88 (0 measured)
latency change    = 0.0237844
throughput change = 0.0189456
Warmed up ...Time used is 3000 cycles
Class 0:
Packet latency average = 49.3281
	minimum = 25
	maximum = 93
Network latency average = 48.6719
	minimum = 25
	maximum = 82
Slowest packet = 384
Flit latency average = 28.4547
	minimum = 6
	maximum = 63
Slowest flit = 8397
Fragmentation average = 1.80469
	minimum = 0
	maximum = 17
Injected packet rate average = 0.00209375
	minimum = 0 (at node 7)
	maximum = 0.007 (at node 21)
Accepted packet rate average = 0.00210938
	minimum = 0 (at node 21)
	maximum = 0.005 (at node 12)
Injected flit rate average = 0.0420781
	minimum = 0 (at node 7)
	maximum = 0.14 (at node 21)
Accepted flit rate average= 0.0419219
	minimum = 0 (at node 22)
	maximum = 0.1 (at node 12)
Injected packet length average = 20.097
Accepted packet length average = 19.8741
Total in-flight flits = 85 (85 measured)
latency change    = 0.0294796
throughput change = 0.0950429
Class 0:
Packet latency average = 49.0295
	minimum = 25
	maximum = 93
Network latency average = 48.5148
	minimum = 25
	maximum = 82
Slowest packet = 384
Flit latency average = 28.3818
	minimum = 6
	maximum = 63
Slowest flit = 8397
Fragmentation average = 1.98734
	minimum = 0
	maximum = 18
Injected packet rate average = 0.00190625
	minimum = 0 (at node 61)
	maximum = 0.005 (at node 47)
Accepted packet rate average = 0.00190625
	minimum = 0 (at node 22)
	maximum = 0.0045 (at node 27)
Injected flit rate average = 0.0380781
	minimum = 0 (at node 61)
	maximum = 0.093 (at node 47)
Accepted flit rate average= 0.0378984
	minimum = 0 (at node 22)
	maximum = 0.09 (at node 27)
Injected packet length average = 19.9754
Accepted packet length average = 19.8811
Total in-flight flits = 117 (117 measured)
latency change    = 0.00608998
throughput change = 0.106164
Class 0:
Packet latency average = 48.7493
	minimum = 25
	maximum = 93
Network latency average = 48.2479
	minimum = 25
	maximum = 82
Slowest packet = 384
Flit latency average = 28.1383
	minimum = 6
	maximum = 63
Slowest flit = 8397
Fragmentation average = 1.78552
	minimum = 0
	maximum = 18
Injected packet rate average = 0.00190104
	minimum = 0.000333333 (at node 33)
	maximum = 0.004 (at node 47)
Accepted packet rate average = 0.00190625
	minimum = 0.000333333 (at node 22)
	maximum = 0.00366667 (at node 6)
Injected flit rate average = 0.0380885
	minimum = 0.00666667 (at node 33)
	maximum = 0.08 (at node 47)
Accepted flit rate average= 0.0382188
	minimum = 0.00666667 (at node 22)
	maximum = 0.0733333 (at node 6)
Injected packet length average = 20.0356
Accepted packet length average = 20.0492
Total in-flight flits = 50 (50 measured)
latency change    = 0.00574844
throughput change = 0.00838103
Class 0:
Packet latency average = 48.8916
	minimum = 25
	maximum = 109
Network latency average = 48.3476
	minimum = 25
	maximum = 94
Slowest packet = 740
Flit latency average = 28.2621
	minimum = 6
	maximum = 75
Slowest flit = 14800
Fragmentation average = 1.93865
	minimum = 0
	maximum = 18
Injected packet rate average = 0.00193359
	minimum = 0.00075 (at node 7)
	maximum = 0.0035 (at node 40)
Accepted packet rate average = 0.0019375
	minimum = 0.0005 (at node 22)
	maximum = 0.0035 (at node 6)
Injected flit rate average = 0.0386445
	minimum = 0.015 (at node 7)
	maximum = 0.07 (at node 40)
Accepted flit rate average= 0.0386914
	minimum = 0.01 (at node 22)
	maximum = 0.07 (at node 6)
Injected packet length average = 19.9859
Accepted packet length average = 19.9698
Total in-flight flits = 83 (83 measured)
latency change    = 0.00291076
throughput change = 0.0122161
Class 0:
Packet latency average = 49.0112
	minimum = 25
	maximum = 109
Network latency average = 48.4808
	minimum = 25
	maximum = 94
Slowest packet = 740
Flit latency average = 28.3623
	minimum = 6
	maximum = 75
Slowest flit = 14800
Fragmentation average = 1.97596
	minimum = 0
	maximum = 18
Injected packet rate average = 0.0019625
	minimum = 0.0006 (at node 7)
	maximum = 0.0032 (at node 40)
Accepted packet rate average = 0.00197188
	minimum = 0.0004 (at node 22)
	maximum = 0.0036 (at node 27)
Injected flit rate average = 0.0392812
	minimum = 0.012 (at node 7)
	maximum = 0.064 (at node 40)
Accepted flit rate average= 0.0393063
	minimum = 0.008 (at node 22)
	maximum = 0.072 (at node 27)
Injected packet length average = 20.0159
Accepted packet length average = 19.9334
Total in-flight flits = 70 (70 measured)
latency change    = 0.00244031
throughput change = 0.0156424
Draining all recorded packets ...
Draining remaining packets ...
Time taken is 8102 cycles
====== Overall Traffic Statistics ======
====== Traffic class 0 ======
Packet latency average = 49.0939 (1 samples)
	minimum = 25 (1 samples)
	maximum = 109 (1 samples)
Network latency average = 48.5669 (1 samples)
	minimum = 25 (1 samples)
	maximum = 94 (1 samples)
Flit latency average = 28.4961 (1 samples)
	minimum = 6 (1 samples)
	maximum = 75 (1 samples)
Fragmentation average = 2.05892 (1 samples)
	minimum = 0 (1 samples)
	maximum = 18 (1 samples)
Injected packet rate average = 0.0019625 (1 samples)
	minimum = 0.0006 (1 samples)
	maximum = 0.0032 (1 samples)
Accepted packet rate average = 0.00197188 (1 samples)
	minimum = 0.0004 (1 samples)
	maximum = 0.0036 (1 samples)
Injected flit rate average = 0.0392812 (1 samples)
	minimum = 0.012 (1 samples)
	maximum = 0.064 (1 samples)
Accepted flit rate average = 0.0393063 (1 samples)
	minimum = 0.008 (1 samples)
	maximum = 0.072 (1 samples)
Injected packet size average = 20.0159 (1 samples)
Accepted packet size average = 19.9334 (1 samples)
Hops average = 6.31051 (1 samples)
Total run time 1.03301
