BEGIN Configuration File: ../../IL2236_project/verify/figure7/216/mesh88_lat
// $Id$

// Copyright (c) 2007-2015, Trustees of The Leland Stanford Junior University
// All rights reserved.
//
// Redistribution and use in source and binary forms, with or without
// modification, are permitted provided that the following conditions are met:
//
// Redistributions of source code must retain the above copyright notice, this
// list of conditions and the following disclaimer.
// Redistributions in binary form must reproduce the above copyright notice,
// this list of conditions and the following disclaimer in the documentation
// and/or other materials provided with the distribution.
//
// THIS SOFTWARE IS PROVIDED BY THE COPYRIGHT HOLDERS AND CONTRIBUTORS "AS IS"
// AND ANY EXPRESS OR IMPLIED WARRANTIES, INCLUDING, BUT NOT LIMITED TO, THE
// IMPLIED WARRANTIES OF MERCHANTABILITY AND FITNESS FOR A PARTICULAR PURPOSE
// ARE DISCLAIMED. IN NO EVENT SHALL THE COPYRIGHT OWNER OR CONTRIBUTORS BE
// LIABLE FOR ANY DIRECT, INDIRECT, INCIDENTAL, SPECIAL, EXEMPLARY, OR
// CONSEQUENTIAL DAMAGES (INCLUDING, BUT NOT LIMITED TO, PROCUREMENT OF
// SUBSTITUTE GOODS OR SERVICES; LOSS OF USE, DATA, OR PROFITS; OR BUSINESS
// INTERRUPTION) HOWEVER CAUSED AND ON ANY THEORY OF LIABILITY, WHETHER IN
// CONTRACT, STRICT LIABILITY, OR TORT (INCLUDING NEGLIGENCE OR OTHERWISE)
// ARISING IN ANY WAY OUT OF THE USE OF THIS SOFTWARE, EVEN IF ADVISED OF THE
// POSSIBILITY OF SUCH DAMAGE.

//8X8 mesh with 20 flits per packet under injection mode
//injection rate here is packet per cycle, NOT flit per cycle

// Topology

topology = mesh;
k = 8;
n = 2;

// Routing
routing_function = dor;

// Flow control
num_vcs     = 2;
vc_buf_size = 16;
wait_for_tail_credit = 1;

// Router architecture
vc_allocator = islip;
sw_allocator = islip;
alloc_iters  = 1;

credit_delay   = 2;
routing_delay  = 0;
vc_alloc_delay = 1;
sw_alloc_delay = 1;

input_speedup     = 2;
output_speedup    = 1;
internal_speedup  = 1.0;


// Traffic
traffic = uniform;
packet_size = 20;


// Simulation
sim_type = latency;

injection_rate = .0035;


END Configuration File: ../../IL2236_project/verify/figure7/216/mesh88_lat
Class 0:
Packet latency average = 51.731
	minimum = 25
	maximum = 125
Network latency average = 51.0761
	minimum = 25
	maximum = 110
Slowest packet = 121
Flit latency average = 30.2357
	minimum = 6
	maximum = 91
Slowest flit = 2439
Fragmentation average = 3.63959
	minimum = 0
	maximum = 19
Injected packet rate average = 0.00320312
	minimum = 0 (at node 34)
	maximum = 0.007 (at node 16)
Accepted packet rate average = 0.00307813
	minimum = 0 (at node 20)
	maximum = 0.008 (at node 18)
Injected flit rate average = 0.0634062
	minimum = 0 (at node 34)
	maximum = 0.14 (at node 16)
Accepted flit rate average= 0.0621719
	minimum = 0 (at node 20)
	maximum = 0.16 (at node 18)
Injected packet length average = 19.7951
Accepted packet length average = 20.198
Total in-flight flits = 121 (0 measured)
latency change    = 1
throughput change = 1
Class 0:
Packet latency average = 50.628
	minimum = 25
	maximum = 125
Network latency average = 50.019
	minimum = 25
	maximum = 110
Slowest packet = 121
Flit latency average = 29.2829
	minimum = 6
	maximum = 91
Slowest flit = 2439
Fragmentation average = 3.26777
	minimum = 0
	maximum = 19
Injected packet rate average = 0.00338281
	minimum = 0.0015 (at node 26)
	maximum = 0.0075 (at node 40)
Accepted packet rate average = 0.00329687
	minimum = 0.0005 (at node 37)
	maximum = 0.0065 (at node 12)
Injected flit rate average = 0.0672266
	minimum = 0.03 (at node 26)
	maximum = 0.15 (at node 40)
Accepted flit rate average= 0.0659922
	minimum = 0.01 (at node 37)
	maximum = 0.13 (at node 12)
Injected packet length average = 19.873
Accepted packet length average = 20.0166
Total in-flight flits = 213 (0 measured)
latency change    = 0.0217864
throughput change = 0.0578904
Class 0:
Packet latency average = 50.5408
	minimum = 25
	maximum = 93
Network latency average = 49.6652
	minimum = 25
	maximum = 93
Slowest packet = 419
Flit latency average = 28.8142
	minimum = 6
	maximum = 74
Slowest flit = 8388
Fragmentation average = 3.5279
	minimum = 0
	maximum = 18
Injected packet rate average = 0.0036875
	minimum = 0 (at node 13)
	maximum = 0.009 (at node 0)
Accepted packet rate average = 0.00364063
	minimum = 0 (at node 40)
	maximum = 0.008 (at node 13)
Injected flit rate average = 0.07425
	minimum = 0 (at node 32)
	maximum = 0.18 (at node 0)
Accepted flit rate average= 0.0733281
	minimum = 0 (at node 40)
	maximum = 0.16 (at node 13)
Injected packet length average = 20.1356
Accepted packet length average = 20.1416
Total in-flight flits = 240 (0 measured)
latency change    = 0.00172513
throughput change = 0.100043
Warmed up ...Time used is 3000 cycles
Class 0:
Packet latency average = 50.1442
	minimum = 25
	maximum = 93
Network latency average = 49.5209
	minimum = 25
	maximum = 77
Slowest packet = 698
Flit latency average = 29.282
	minimum = 6
	maximum = 78
Slowest flit = 13159
Fragmentation average = 3.86512
	minimum = 0
	maximum = 19
Injected packet rate average = 0.00353125
	minimum = 0 (at node 58)
	maximum = 0.008 (at node 36)
Accepted packet rate average = 0.00357813
	minimum = 0 (at node 15)
	maximum = 0.008 (at node 24)
Injected flit rate average = 0.0704063
	minimum = 0.019 (at node 58)
	maximum = 0.141 (at node 36)
Accepted flit rate average= 0.0715313
	minimum = 0 (at node 15)
	maximum = 0.16 (at node 37)
Injected packet length average = 19.9381
Accepted packet length average = 19.9913
Total in-flight flits = 182 (182 measured)
latency change    = 0.00790892
throughput change = 0.0251201
Class 0:
Packet latency average = 50.9853
	minimum = 25
	maximum = 98
Network latency average = 50.2451
	minimum = 25
	maximum = 80
Slowest packet = 698
Flit latency average = 29.6249
	minimum = 6
	maximum = 78
Slowest flit = 13159
Fragmentation average = 3.72059
	minimum = 0
	maximum = 19
Injected packet rate average = 0.00329687
	minimum = 0.0005 (at node 58)
	maximum = 0.0055 (at node 16)
Accepted packet rate average = 0.00329687
	minimum = 0.0005 (at node 16)
	maximum = 0.006 (at node 31)
Injected flit rate average = 0.0656562
	minimum = 0.0195 (at node 58)
	maximum = 0.11 (at node 16)
Accepted flit rate average= 0.0659766
	minimum = 0.01 (at node 16)
	maximum = 0.12 (at node 31)
Injected packet length average = 19.9147
Accepted packet length average = 20.0118
Total in-flight flits = 235 (235 measured)
latency change    = 0.0164971
throughput change = 0.0841918
Class 0:
Packet latency average = 51.1136
	minimum = 25
	maximum = 104
Network latency average = 50.2672
	minimum = 25
	maximum = 104
Slowest packet = 1288
Flit latency average = 29.7068
	minimum = 6
	maximum = 85
Slowest flit = 25779
Fragmentation average = 3.392
	minimum = 0
	maximum = 19
Injected packet rate average = 0.00328646
	minimum = 0.001 (at node 37)
	maximum = 0.00533333 (at node 44)
Accepted packet rate average = 0.00332812
	minimum = 0.001 (at node 46)
	maximum = 0.00566667 (at node 9)
Injected flit rate average = 0.0658125
	minimum = 0.02 (at node 37)
	maximum = 0.106667 (at node 44)
Accepted flit rate average= 0.0665677
	minimum = 0.02 (at node 46)
	maximum = 0.113333 (at node 9)
Injected packet length average = 20.0254
Accepted packet length average = 20.0016
Total in-flight flits = 79 (79 measured)
latency change    = 0.00251021
throughput change = 0.00888037
Class 0:
Packet latency average = 51.4673
	minimum = 25
	maximum = 131
Network latency average = 50.6659
	minimum = 25
	maximum = 113
Slowest packet = 1288
Flit latency average = 29.8016
	minimum = 6
	maximum = 93
Slowest flit = 29540
Fragmentation average = 3.72313
	minimum = 0
	maximum = 19
Injected packet rate average = 0.00338672
	minimum = 0.0015 (at node 37)
	maximum = 0.005 (at node 20)
Accepted packet rate average = 0.00339844
	minimum = 0.00175 (at node 16)
	maximum = 0.006 (at node 27)
Injected flit rate average = 0.0675898
	minimum = 0.03 (at node 37)
	maximum = 0.1 (at node 20)
Accepted flit rate average= 0.0679141
	minimum = 0.035 (at node 16)
	maximum = 0.12 (at node 27)
Injected packet length average = 19.9573
Accepted packet length average = 19.9839
Total in-flight flits = 194 (194 measured)
latency change    = 0.00687213
throughput change = 0.0198244
Class 0:
Packet latency average = 51.3688
	minimum = 25
	maximum = 131
Network latency average = 50.5878
	minimum = 25
	maximum = 117
Slowest packet = 1288
Flit latency average = 29.7474
	minimum = 6
	maximum = 98
Slowest flit = 32439
Fragmentation average = 3.63124
	minimum = 0
	maximum = 19
Injected packet rate average = 0.00342188
	minimum = 0.0016 (at node 25)
	maximum = 0.0054 (at node 29)
Accepted packet rate average = 0.003425
	minimum = 0.0018 (at node 32)
	maximum = 0.0052 (at node 27)
Injected flit rate average = 0.0683969
	minimum = 0.032 (at node 25)
	maximum = 0.108 (at node 29)
Accepted flit rate average= 0.0686313
	minimum = 0.036 (at node 53)
	maximum = 0.104 (at node 27)
Injected packet length average = 19.9881
Accepted packet length average = 20.0383
Total in-flight flits = 178 (178 measured)
latency change    = 0.00191806
throughput change = 0.0104499
Draining all recorded packets ...
Draining remaining packets ...
Time taken is 8100 cycles
====== Overall Traffic Statistics ======
====== Traffic class 0 ======
Packet latency average = 51.4548 (1 samples)
	minimum = 25 (1 samples)
	maximum = 131 (1 samples)
Network latency average = 50.6767 (1 samples)
	minimum = 25 (1 samples)
	maximum = 117 (1 samples)
Flit latency average = 29.8251 (1 samples)
	minimum = 6 (1 samples)
	maximum = 98 (1 samples)
Fragmentation average = 3.64292 (1 samples)
	minimum = 0 (1 samples)
	maximum = 19 (1 samples)
Injected packet rate average = 0.00342188 (1 samples)
	minimum = 0.0016 (1 samples)
	maximum = 0.0054 (1 samples)
Accepted packet rate average = 0.003425 (1 samples)
	minimum = 0.0018 (1 samples)
	maximum = 0.0052 (1 samples)
Injected flit rate average = 0.0683969 (1 samples)
	minimum = 0.032 (1 samples)
	maximum = 0.108 (1 samples)
Accepted flit rate average = 0.0686313 (1 samples)
	minimum = 0.036 (1 samples)
	maximum = 0.104 (1 samples)
Injected packet size average = 19.9881 (1 samples)
Accepted packet size average = 20.0383 (1 samples)
Hops average = 6.27854 (1 samples)
Total run time 1.42811
