BEGIN Configuration File: ../../IL2236_project/verify/figure7/216/mesh88_lat
// $Id$

// Copyright (c) 2007-2015, Trustees of The Leland Stanford Junior University
// All rights reserved.
//
// Redistribution and use in source and binary forms, with or without
// modification, are permitted provided that the following conditions are met:
//
// Redistributions of source code must retain the above copyright notice, this
// list of conditions and the following disclaimer.
// Redistributions in binary form must reproduce the above copyright notice,
// this list of conditions and the following disclaimer in the documentation
// and/or other materials provided with the distribution.
//
// THIS SOFTWARE IS PROVIDED BY THE COPYRIGHT HOLDERS AND CONTRIBUTORS "AS IS"
// AND ANY EXPRESS OR IMPLIED WARRANTIES, INCLUDING, BUT NOT LIMITED TO, THE
// IMPLIED WARRANTIES OF MERCHANTABILITY AND FITNESS FOR A PARTICULAR PURPOSE
// ARE DISCLAIMED. IN NO EVENT SHALL THE COPYRIGHT OWNER OR CONTRIBUTORS BE
// LIABLE FOR ANY DIRECT, INDIRECT, INCIDENTAL, SPECIAL, EXEMPLARY, OR
// CONSEQUENTIAL DAMAGES (INCLUDING, BUT NOT LIMITED TO, PROCUREMENT OF
// SUBSTITUTE GOODS OR SERVICES; LOSS OF USE, DATA, OR PROFITS; OR BUSINESS
// INTERRUPTION) HOWEVER CAUSED AND ON ANY THEORY OF LIABILITY, WHETHER IN
// CONTRACT, STRICT LIABILITY, OR TORT (INCLUDING NEGLIGENCE OR OTHERWISE)
// ARISING IN ANY WAY OUT OF THE USE OF THIS SOFTWARE, EVEN IF ADVISED OF THE
// POSSIBILITY OF SUCH DAMAGE.

//8X8 mesh with 20 flits per packet under injection mode
//injection rate here is packet per cycle, NOT flit per cycle

// Topology

topology = mesh;
k = 8;
n = 2;

// Routing
routing_function = dor;

// Flow control
num_vcs     = 2;
vc_buf_size = 16;
wait_for_tail_credit = 1;

// Router architecture
vc_allocator = islip;
sw_allocator = islip;
alloc_iters  = 1;

credit_delay   = 2;
routing_delay  = 0;
vc_alloc_delay = 1;
sw_alloc_delay = 1;

input_speedup     = 2;
output_speedup    = 1;
internal_speedup  = 1.0;


// Traffic
traffic = uniform;
packet_size = 20;


// Simulation
sim_type = latency;

injection_rate = .0115;


END Configuration File: ../../IL2236_project/verify/figure7/216/mesh88_lat
Class 0:
Packet latency average = 70.6033
	minimum = 25
	maximum = 218
Network latency average = 66.7635
	minimum = 25
	maximum = 207
Slowest packet = 106
Flit latency average = 42.7848
	minimum = 6
	maximum = 184
Slowest flit = 2135
Fragmentation average = 8.91467
	minimum = 0
	maximum = 19
Injected packet rate average = 0.0110937
	minimum = 0.005 (at node 4)
	maximum = 0.021 (at node 3)
Accepted packet rate average = 0.0104375
	minimum = 0.005 (at node 11)
	maximum = 0.018 (at node 12)
Injected flit rate average = 0.219672
	minimum = 0.1 (at node 4)
	maximum = 0.416 (at node 3)
Accepted flit rate average= 0.211531
	minimum = 0.1 (at node 11)
	maximum = 0.363 (at node 12)
Injected packet length average = 19.8014
Accepted packet length average = 20.2665
Total in-flight flits = 662 (0 measured)
latency change    = 1
throughput change = 1
Class 0:
Packet latency average = 71.8622
	minimum = 25
	maximum = 262
Network latency average = 68.1632
	minimum = 25
	maximum = 236
Slowest packet = 1086
Flit latency average = 44.1436
	minimum = 6
	maximum = 217
Slowest flit = 21739
Fragmentation average = 9.04641
	minimum = 0
	maximum = 19
Injected packet rate average = 0.0112969
	minimum = 0.0075 (at node 54)
	maximum = 0.0195 (at node 3)
Accepted packet rate average = 0.0107734
	minimum = 0.007 (at node 43)
	maximum = 0.0165 (at node 27)
Injected flit rate average = 0.224312
	minimum = 0.15 (at node 54)
	maximum = 0.381 (at node 3)
Accepted flit rate average= 0.217867
	minimum = 0.15 (at node 29)
	maximum = 0.3365 (at node 27)
Injected packet length average = 19.8562
Accepted packet length average = 20.2226
Total in-flight flits = 1033 (0 measured)
latency change    = 0.0175186
throughput change = 0.0290817
Class 0:
Packet latency average = 70.7244
	minimum = 25
	maximum = 240
Network latency average = 67.0827
	minimum = 25
	maximum = 239
Slowest packet = 1290
Flit latency average = 42.9504
	minimum = 6
	maximum = 220
Slowest flit = 37459
Fragmentation average = 8.97375
	minimum = 0
	maximum = 19
Injected packet rate average = 0.0117813
	minimum = 0.002 (at node 37)
	maximum = 0.021 (at node 50)
Accepted packet rate average = 0.0119063
	minimum = 0.004 (at node 53)
	maximum = 0.022 (at node 40)
Injected flit rate average = 0.235594
	minimum = 0.044 (at node 37)
	maximum = 0.402 (at node 50)
Accepted flit rate average= 0.235672
	minimum = 0.08 (at node 53)
	maximum = 0.433 (at node 40)
Injected packet length average = 19.9973
Accepted packet length average = 19.794
Total in-flight flits = 1030 (0 measured)
latency change    = 0.0160879
throughput change = 0.0755486
Warmed up ...Time used is 3000 cycles
Class 0:
Packet latency average = 74.8689
	minimum = 25
	maximum = 271
Network latency average = 70.9925
	minimum = 25
	maximum = 211
Slowest packet = 2243
Flit latency average = 47.9197
	minimum = 6
	maximum = 192
Slowest flit = 52616
Fragmentation average = 8.90611
	minimum = 0
	maximum = 19
Injected packet rate average = 0.0113437
	minimum = 0.004 (at node 19)
	maximum = 0.02 (at node 24)
Accepted packet rate average = 0.0114062
	minimum = 0.005 (at node 13)
	maximum = 0.019 (at node 22)
Injected flit rate average = 0.227594
	minimum = 0.08 (at node 19)
	maximum = 0.4 (at node 24)
Accepted flit rate average= 0.229344
	minimum = 0.1 (at node 13)
	maximum = 0.382 (at node 50)
Injected packet length average = 20.0634
Accepted packet length average = 20.1068
Total in-flight flits = 872 (872 measured)
latency change    = 0.055356
throughput change = 0.0275923
Class 0:
Packet latency average = 75.6354
	minimum = 25
	maximum = 286
Network latency average = 71.291
	minimum = 25
	maximum = 274
Slowest packet = 3372
Flit latency average = 47.4485
	minimum = 6
	maximum = 255
Slowest flit = 67447
Fragmentation average = 9.28592
	minimum = 0
	maximum = 19
Injected packet rate average = 0.0111797
	minimum = 0.0065 (at node 14)
	maximum = 0.017 (at node 24)
Accepted packet rate average = 0.0112812
	minimum = 0.007 (at node 19)
	maximum = 0.019 (at node 22)
Injected flit rate average = 0.224086
	minimum = 0.138 (at node 14)
	maximum = 0.34 (at node 24)
Accepted flit rate average= 0.226141
	minimum = 0.1455 (at node 19)
	maximum = 0.38 (at node 22)
Injected packet length average = 20.044
Accepted packet length average = 20.0457
Total in-flight flits = 704 (704 measured)
latency change    = 0.0101345
throughput change = 0.0141643
Class 0:
Packet latency average = 74.2189
	minimum = 25
	maximum = 286
Network latency average = 69.8963
	minimum = 25
	maximum = 274
Slowest packet = 3372
Flit latency average = 46.0268
	minimum = 6
	maximum = 255
Slowest flit = 67447
Fragmentation average = 9.0989
	minimum = 0
	maximum = 19
Injected packet rate average = 0.0111042
	minimum = 0.00533333 (at node 16)
	maximum = 0.0156667 (at node 24)
Accepted packet rate average = 0.0111562
	minimum = 0.007 (at node 30)
	maximum = 0.0166667 (at node 22)
Injected flit rate average = 0.221932
	minimum = 0.112 (at node 16)
	maximum = 0.313333 (at node 24)
Accepted flit rate average= 0.223276
	minimum = 0.14 (at node 30)
	maximum = 0.333333 (at node 22)
Injected packet length average = 19.9864
Accepted packet length average = 20.0135
Total in-flight flits = 801 (801 measured)
latency change    = 0.0190849
throughput change = 0.0128298
Class 0:
Packet latency average = 73.3626
	minimum = 25
	maximum = 286
Network latency average = 69.2947
	minimum = 25
	maximum = 274
Slowest packet = 3372
Flit latency average = 45.4196
	minimum = 6
	maximum = 255
Slowest flit = 67447
Fragmentation average = 9.20463
	minimum = 0
	maximum = 19
Injected packet rate average = 0.0111836
	minimum = 0.007 (at node 16)
	maximum = 0.0145 (at node 5)
Accepted packet rate average = 0.011207
	minimum = 0.0075 (at node 10)
	maximum = 0.0145 (at node 14)
Injected flit rate average = 0.223789
	minimum = 0.14125 (at node 16)
	maximum = 0.289 (at node 5)
Accepted flit rate average= 0.2245
	minimum = 0.15 (at node 10)
	maximum = 0.2945 (at node 22)
Injected packet length average = 20.0105
Accepted packet length average = 20.0321
Total in-flight flits = 818 (818 measured)
latency change    = 0.0116719
throughput change = 0.00545193
Draining all recorded packets ...
Draining remaining packets ...
Time taken is 7254 cycles
====== Overall Traffic Statistics ======
====== Traffic class 0 ======
Packet latency average = 73.5443 (1 samples)
	minimum = 25 (1 samples)
	maximum = 286 (1 samples)
Network latency average = 69.3887 (1 samples)
	minimum = 25 (1 samples)
	maximum = 274 (1 samples)
Flit latency average = 45.478 (1 samples)
	minimum = 6 (1 samples)
	maximum = 255 (1 samples)
Fragmentation average = 9.24006 (1 samples)
	minimum = 0 (1 samples)
	maximum = 19 (1 samples)
Injected packet rate average = 0.0111836 (1 samples)
	minimum = 0.007 (1 samples)
	maximum = 0.0145 (1 samples)
Accepted packet rate average = 0.011207 (1 samples)
	minimum = 0.0075 (1 samples)
	maximum = 0.0145 (1 samples)
Injected flit rate average = 0.223789 (1 samples)
	minimum = 0.14125 (1 samples)
	maximum = 0.289 (1 samples)
Accepted flit rate average = 0.2245 (1 samples)
	minimum = 0.15 (1 samples)
	maximum = 0.2945 (1 samples)
Injected packet size average = 20.0105 (1 samples)
Accepted packet size average = 20.0321 (1 samples)
Hops average = 6.33496 (1 samples)
Total run time 3.10102
