BEGIN Configuration File: ../../IL2236_project/verify/figure7/216/mesh88_lat
// $Id$

// Copyright (c) 2007-2015, Trustees of The Leland Stanford Junior University
// All rights reserved.
//
// Redistribution and use in source and binary forms, with or without
// modification, are permitted provided that the following conditions are met:
//
// Redistributions of source code must retain the above copyright notice, this
// list of conditions and the following disclaimer.
// Redistributions in binary form must reproduce the above copyright notice,
// this list of conditions and the following disclaimer in the documentation
// and/or other materials provided with the distribution.
//
// THIS SOFTWARE IS PROVIDED BY THE COPYRIGHT HOLDERS AND CONTRIBUTORS "AS IS"
// AND ANY EXPRESS OR IMPLIED WARRANTIES, INCLUDING, BUT NOT LIMITED TO, THE
// IMPLIED WARRANTIES OF MERCHANTABILITY AND FITNESS FOR A PARTICULAR PURPOSE
// ARE DISCLAIMED. IN NO EVENT SHALL THE COPYRIGHT OWNER OR CONTRIBUTORS BE
// LIABLE FOR ANY DIRECT, INDIRECT, INCIDENTAL, SPECIAL, EXEMPLARY, OR
// CONSEQUENTIAL DAMAGES (INCLUDING, BUT NOT LIMITED TO, PROCUREMENT OF
// SUBSTITUTE GOODS OR SERVICES; LOSS OF USE, DATA, OR PROFITS; OR BUSINESS
// INTERRUPTION) HOWEVER CAUSED AND ON ANY THEORY OF LIABILITY, WHETHER IN
// CONTRACT, STRICT LIABILITY, OR TORT (INCLUDING NEGLIGENCE OR OTHERWISE)
// ARISING IN ANY WAY OUT OF THE USE OF THIS SOFTWARE, EVEN IF ADVISED OF THE
// POSSIBILITY OF SUCH DAMAGE.

//8X8 mesh with 20 flits per packet under injection mode
//injection rate here is packet per cycle, NOT flit per cycle

// Topology

topology = mesh;
k = 8;
n = 2;

// Routing
routing_function = dor;

// Flow control
num_vcs     = 2;
vc_buf_size = 16;
wait_for_tail_credit = 1;

// Router architecture
vc_allocator = islip;
sw_allocator = islip;
alloc_iters  = 1;

credit_delay   = 2;
routing_delay  = 0;
vc_alloc_delay = 1;
sw_alloc_delay = 1;

input_speedup     = 2;
output_speedup    = 1;
internal_speedup  = 1.0;


// Traffic
traffic = uniform;
packet_size = 20;


// Simulation
sim_type = latency;

injection_rate = .0130;


END Configuration File: ../../IL2236_project/verify/figure7/216/mesh88_lat
Class 0:
Packet latency average = 76.1806
	minimum = 25
	maximum = 330
Network latency average = 71.2513
	minimum = 25
	maximum = 330
Slowest packet = 236
Flit latency average = 46.4928
	minimum = 6
	maximum = 311
Slowest flit = 4739
Fragmentation average = 9.75
	minimum = 0
	maximum = 19
Injected packet rate average = 0.0128281
	minimum = 0.006 (at node 8)
	maximum = 0.02 (at node 40)
Accepted packet rate average = 0.0119375
	minimum = 0.006 (at node 54)
	maximum = 0.02 (at node 12)
Injected flit rate average = 0.254375
	minimum = 0.115 (at node 8)
	maximum = 0.4 (at node 40)
Accepted flit rate average= 0.241984
	minimum = 0.12 (at node 54)
	maximum = 0.416 (at node 12)
Injected packet length average = 19.8295
Accepted packet length average = 20.2709
Total in-flight flits = 933 (0 measured)
latency change    = 1
throughput change = 1
Class 0:
Packet latency average = 81.9868
	minimum = 25
	maximum = 373
Network latency average = 75.9301
	minimum = 25
	maximum = 349
Slowest packet = 236
Flit latency average = 51.2105
	minimum = 6
	maximum = 330
Slowest flit = 25779
Fragmentation average = 9.83186
	minimum = 0
	maximum = 19
Injected packet rate average = 0.0129687
	minimum = 0.0065 (at node 8)
	maximum = 0.02 (at node 25)
Accepted packet rate average = 0.0124063
	minimum = 0.008 (at node 29)
	maximum = 0.019 (at node 27)
Injected flit rate average = 0.257797
	minimum = 0.13 (at node 8)
	maximum = 0.3925 (at node 25)
Accepted flit rate average= 0.250547
	minimum = 0.16 (at node 29)
	maximum = 0.38 (at node 27)
Injected packet length average = 19.8783
Accepted packet length average = 20.1952
Total in-flight flits = 1130 (0 measured)
latency change    = 0.0708181
throughput change = 0.0341752
Class 0:
Packet latency average = 79.4385
	minimum = 25
	maximum = 325
Network latency average = 75.2286
	minimum = 25
	maximum = 302
Slowest packet = 1753
Flit latency average = 50.4892
	minimum = 6
	maximum = 279
Slowest flit = 35075
Fragmentation average = 9.76671
	minimum = 0
	maximum = 19
Injected packet rate average = 0.0133125
	minimum = 0.007 (at node 14)
	maximum = 0.02 (at node 49)
Accepted packet rate average = 0.0133281
	minimum = 0.006 (at node 52)
	maximum = 0.023 (at node 47)
Injected flit rate average = 0.266437
	minimum = 0.133 (at node 14)
	maximum = 0.4 (at node 49)
Accepted flit rate average= 0.265891
	minimum = 0.12 (at node 52)
	maximum = 0.475 (at node 47)
Injected packet length average = 20.0141
Accepted packet length average = 19.9496
Total in-flight flits = 1153 (0 measured)
latency change    = 0.0320792
throughput change = 0.057707
Warmed up ...Time used is 3000 cycles
Class 0:
Packet latency average = 81.9987
	minimum = 25
	maximum = 346
Network latency average = 73.8779
	minimum = 25
	maximum = 299
Slowest packet = 2537
Flit latency average = 50.577
	minimum = 6
	maximum = 280
Slowest flit = 50756
Fragmentation average = 10.1221
	minimum = 0
	maximum = 19
Injected packet rate average = 0.012875
	minimum = 0.007 (at node 30)
	maximum = 0.024 (at node 52)
Accepted packet rate average = 0.0131406
	minimum = 0.005 (at node 36)
	maximum = 0.025 (at node 22)
Injected flit rate average = 0.258094
	minimum = 0.14 (at node 30)
	maximum = 0.495 (at node 52)
Accepted flit rate average= 0.262734
	minimum = 0.1 (at node 36)
	maximum = 0.498 (at node 22)
Injected packet length average = 20.0461
Accepted packet length average = 19.9941
Total in-flight flits = 818 (818 measured)
latency change    = 0.031223
throughput change = 0.0120131
Class 0:
Packet latency average = 80.3999
	minimum = 25
	maximum = 346
Network latency average = 73.5035
	minimum = 25
	maximum = 299
Slowest packet = 2537
Flit latency average = 49.683
	minimum = 6
	maximum = 280
Slowest flit = 50756
Fragmentation average = 9.90718
	minimum = 0
	maximum = 19
Injected packet rate average = 0.0126953
	minimum = 0.007 (at node 13)
	maximum = 0.02 (at node 21)
Accepted packet rate average = 0.0128437
	minimum = 0.006 (at node 23)
	maximum = 0.02 (at node 22)
Injected flit rate average = 0.253773
	minimum = 0.148 (at node 13)
	maximum = 0.4 (at node 21)
Accepted flit rate average= 0.255984
	minimum = 0.128 (at node 23)
	maximum = 0.3945 (at node 22)
Injected packet length average = 19.9895
Accepted packet length average = 19.9307
Total in-flight flits = 887 (887 measured)
latency change    = 0.019886
throughput change = 0.0263688
Class 0:
Packet latency average = 78.767
	minimum = 25
	maximum = 346
Network latency average = 72.634
	minimum = 25
	maximum = 299
Slowest packet = 2537
Flit latency average = 48.6387
	minimum = 6
	maximum = 280
Slowest flit = 50756
Fragmentation average = 9.81131
	minimum = 0
	maximum = 19
Injected packet rate average = 0.0126198
	minimum = 0.009 (at node 35)
	maximum = 0.0196667 (at node 21)
Accepted packet rate average = 0.0127083
	minimum = 0.00866667 (at node 30)
	maximum = 0.017 (at node 34)
Injected flit rate average = 0.252198
	minimum = 0.18 (at node 35)
	maximum = 0.389667 (at node 21)
Accepted flit rate average= 0.25374
	minimum = 0.177 (at node 30)
	maximum = 0.34 (at node 34)
Injected packet length average = 19.9843
Accepted packet length average = 19.9664
Total in-flight flits = 915 (915 measured)
latency change    = 0.0207305
throughput change = 0.00884683
Draining all recorded packets ...
Draining remaining packets ...
Time taken is 6263 cycles
====== Overall Traffic Statistics ======
====== Traffic class 0 ======
Packet latency average = 78.6955 (1 samples)
	minimum = 25 (1 samples)
	maximum = 346 (1 samples)
Network latency average = 72.5941 (1 samples)
	minimum = 25 (1 samples)
	maximum = 299 (1 samples)
Flit latency average = 48.6551 (1 samples)
	minimum = 6 (1 samples)
	maximum = 280 (1 samples)
Fragmentation average = 9.77792 (1 samples)
	minimum = 0 (1 samples)
	maximum = 19 (1 samples)
Injected packet rate average = 0.0126198 (1 samples)
	minimum = 0.009 (1 samples)
	maximum = 0.0196667 (1 samples)
Accepted packet rate average = 0.0127083 (1 samples)
	minimum = 0.00866667 (1 samples)
	maximum = 0.017 (1 samples)
Injected flit rate average = 0.252198 (1 samples)
	minimum = 0.18 (1 samples)
	maximum = 0.389667 (1 samples)
Accepted flit rate average = 0.25374 (1 samples)
	minimum = 0.177 (1 samples)
	maximum = 0.34 (1 samples)
Injected packet size average = 19.9843 (1 samples)
Accepted packet size average = 19.9664 (1 samples)
Hops average = 6.20931 (1 samples)
Total run time 2.96677
