BEGIN Configuration File: ../../IL2236_project/verify/figure2/ROMM/mesh88_lat
// $Id$

// Copyright (c) 2007-2015, Trustees of The Leland Stanford Junior University
// All rights reserved.
//
// Redistribution and use in source and binary forms, with or without
// modification, are permitted provided that the following conditions are met:
//
// Redistributions of source code must retain the above copyright notice, this
// list of conditions and the following disclaimer.
// Redistributions in binary form must reproduce the above copyright notice,
// this list of conditions and the following disclaimer in the documentation
// and/or other materials provided with the distribution.
//
// THIS SOFTWARE IS PROVIDED BY THE COPYRIGHT HOLDERS AND CONTRIBUTORS "AS IS"
// AND ANY EXPRESS OR IMPLIED WARRANTIES, INCLUDING, BUT NOT LIMITED TO, THE
// IMPLIED WARRANTIES OF MERCHANTABILITY AND FITNESS FOR A PARTICULAR PURPOSE
// ARE DISCLAIMED. IN NO EVENT SHALL THE COPYRIGHT OWNER OR CONTRIBUTORS BE
// LIABLE FOR ANY DIRECT, INDIRECT, INCIDENTAL, SPECIAL, EXEMPLARY, OR
// CONSEQUENTIAL DAMAGES (INCLUDING, BUT NOT LIMITED TO, PROCUREMENT OF
// SUBSTITUTE GOODS OR SERVICES; LOSS OF USE, DATA, OR PROFITS; OR BUSINESS
// INTERRUPTION) HOWEVER CAUSED AND ON ANY THEORY OF LIABILITY, WHETHER IN
// CONTRACT, STRICT LIABILITY, OR TORT (INCLUDING NEGLIGENCE OR OTHERWISE)
// ARISING IN ANY WAY OUT OF THE USE OF THIS SOFTWARE, EVEN IF ADVISED OF THE
// POSSIBILITY OF SUCH DAMAGE.

//8X8 mesh with 20 flits per packet under injection mode
//injection rate here is packet per cycle, NOT flit per cycle

// Topology

topology = mesh;
k = 8;
n = 2;

// Routing
routing_function = romm;

// Flow control
num_vcs     = 8;
vc_buf_size = 8;
wait_for_tail_credit = 1;

// Router architecture
vc_allocator = islip;
sw_allocator = islip;
alloc_iters  = 1;

credit_delay   = 2;
routing_delay  = 0;
vc_alloc_delay = 1;
sw_alloc_delay = 1;

input_speedup     = 2;
output_speedup    = 1;
internal_speedup  = 1.0;


// Traffic
traffic = transpose;
packet_size = 20;


// Simulation
sim_type = latency;

injection_rate = .0005;


END Configuration File: ../../IL2236_project/verify/figure2/ROMM/mesh88_lat
Class 0:
Packet latency average = 44.6364
	minimum = 25
	maximum = 81
Network latency average = 44.6364
	minimum = 25
	maximum = 81
Slowest packet = 2
Flit latency average = 25.6364
	minimum = 6
	maximum = 62
Slowest flit = 40
Fragmentation average = 0
	minimum = 0
	maximum = 0
Injected packet rate average = 0.000359375
	minimum = 0 (at node 1)
	maximum = 0.002 (at node 2)
Accepted packet rate average = 0.00034375
	minimum = 0 (at node 1)
	maximum = 0.002 (at node 9)
Injected flit rate average = 0.007
	minimum = 0 (at node 1)
	maximum = 0.04 (at node 9)
Accepted flit rate average= 0.006875
	minimum = 0 (at node 1)
	maximum = 0.04 (at node 9)
Injected packet length average = 19.4783
Accepted packet length average = 20
Total in-flight flits = 20 (0 measured)
latency change    = 1
throughput change = 1
Class 0:
Packet latency average = 45.2407
	minimum = 25
	maximum = 81
Network latency average = 45.2407
	minimum = 25
	maximum = 81
Slowest packet = 2
Flit latency average = 26.2566
	minimum = 6
	maximum = 62
Slowest flit = 40
Fragmentation average = 0.240741
	minimum = 0
	maximum = 8
Injected packet rate average = 0.000429688
	minimum = 0 (at node 1)
	maximum = 0.0015 (at node 2)
Accepted packet rate average = 0.000421875
	minimum = 0 (at node 3)
	maximum = 0.0015 (at node 4)
Injected flit rate average = 0.00859375
	minimum = 0 (at node 1)
	maximum = 0.03 (at node 2)
Accepted flit rate average= 0.00855469
	minimum = 0 (at node 3)
	maximum = 0.03 (at node 4)
Injected packet length average = 20
Accepted packet length average = 20.2778
Total in-flight flits = 5 (0 measured)
latency change    = 0.0133591
throughput change = 0.196347
Class 0:
Packet latency average = 44.2812
	minimum = 33
	maximum = 81
Network latency average = 44.2812
	minimum = 33
	maximum = 81
Slowest packet = 61
Flit latency average = 24.8112
	minimum = 14
	maximum = 62
Slowest flit = 1220
Fragmentation average = 0.28125
	minimum = 0
	maximum = 5
Injected packet rate average = 0.000484375
	minimum = 0 (at node 0)
	maximum = 0.004 (at node 1)
Accepted packet rate average = 0.0005
	minimum = 0 (at node 0)
	maximum = 0.004 (at node 8)
Injected flit rate average = 0.0096875
	minimum = 0 (at node 0)
	maximum = 0.08 (at node 1)
Accepted flit rate average= 0.00976562
	minimum = 0 (at node 0)
	maximum = 0.08 (at node 8)
Injected packet length average = 20
Accepted packet length average = 19.5312
Total in-flight flits = 0 (0 measured)
latency change    = 0.0216681
throughput change = 0.124
Warmed up ...Time used is 3000 cycles
Class 0:
Packet latency average = 41.3871
	minimum = 25
	maximum = 66
Network latency average = 41.1613
	minimum = 25
	maximum = 66
Slowest packet = 92
Flit latency average = 21.2077
	minimum = 6
	maximum = 47
Slowest flit = 1855
Fragmentation average = 1.70968
	minimum = 0
	maximum = 18
Injected packet rate average = 0.0005
	minimum = 0 (at node 0)
	maximum = 0.004 (at node 43)
Accepted packet rate average = 0.000484375
	minimum = 0 (at node 0)
	maximum = 0.004 (at node 29)
Injected flit rate average = 0.00992188
	minimum = 0 (at node 0)
	maximum = 0.08 (at node 43)
Accepted flit rate average= 0.00970312
	minimum = 0 (at node 0)
	maximum = 0.08 (at node 29)
Injected packet length average = 19.8438
Accepted packet length average = 20.0323
Total in-flight flits = 19 (19 measured)
latency change    = 0.0699289
throughput change = 0.00644122
Class 0:
Packet latency average = 43.5455
	minimum = 25
	maximum = 73
Network latency average = 43.4182
	minimum = 25
	maximum = 73
Slowest packet = 120
Flit latency average = 23.8873
	minimum = 6
	maximum = 54
Slowest flit = 2400
Fragmentation average = 0.963636
	minimum = 0
	maximum = 18
Injected packet rate average = 0.0004375
	minimum = 0 (at node 0)
	maximum = 0.0025 (at node 43)
Accepted packet rate average = 0.000429688
	minimum = 0 (at node 0)
	maximum = 0.0025 (at node 29)
Injected flit rate average = 0.00865625
	minimum = 0 (at node 0)
	maximum = 0.05 (at node 43)
Accepted flit rate average= 0.00859375
	minimum = 0 (at node 0)
	maximum = 0.05 (at node 29)
Injected packet length average = 19.7857
Accepted packet length average = 20
Total in-flight flits = 20 (20 measured)
latency change    = 0.0495656
throughput change = 0.129091
Class 0:
Packet latency average = 43.3059
	minimum = 25
	maximum = 73
Network latency average = 43.2235
	minimum = 25
	maximum = 73
Slowest packet = 120
Flit latency average = 23.88
	minimum = 6
	maximum = 54
Slowest flit = 2400
Fragmentation average = 0.623529
	minimum = 0
	maximum = 18
Injected packet rate average = 0.000442708
	minimum = 0 (at node 0)
	maximum = 0.002 (at node 43)
Accepted packet rate average = 0.000442708
	minimum = 0 (at node 0)
	maximum = 0.002 (at node 29)
Injected flit rate average = 0.00885417
	minimum = 0 (at node 0)
	maximum = 0.04 (at node 43)
Accepted flit rate average= 0.00885417
	minimum = 0 (at node 0)
	maximum = 0.04 (at node 29)
Injected packet length average = 20
Accepted packet length average = 20
Total in-flight flits = 0 (0 measured)
latency change    = 0.00553209
throughput change = 0.0294118
Class 0:
Packet latency average = 43.807
	minimum = 25
	maximum = 83
Network latency average = 43.6404
	minimum = 25
	maximum = 81
Slowest packet = 120
Flit latency average = 24.337
	minimum = 6
	maximum = 62
Slowest flit = 3760
Fragmentation average = 0.605263
	minimum = 0
	maximum = 18
Injected packet rate average = 0.000449219
	minimum = 0 (at node 0)
	maximum = 0.0015 (at node 5)
Accepted packet rate average = 0.000445313
	minimum = 0 (at node 0)
	maximum = 0.0015 (at node 29)
Injected flit rate average = 0.00898437
	minimum = 0 (at node 0)
	maximum = 0.03 (at node 5)
Accepted flit rate average= 0.00896094
	minimum = 0 (at node 0)
	maximum = 0.03 (at node 29)
Injected packet length average = 20
Accepted packet length average = 20.1228
Total in-flight flits = 6 (6 measured)
latency change    = 0.0114396
throughput change = 0.0119151
Class 0:
Packet latency average = 44.0867
	minimum = 25
	maximum = 86
Network latency average = 43.7333
	minimum = 25
	maximum = 86
Slowest packet = 220
Flit latency average = 24.2373
	minimum = 6
	maximum = 67
Slowest flit = 4419
Fragmentation average = 0.92
	minimum = 0
	maximum = 24
Injected packet rate average = 0.000475
	minimum = 0 (at node 0)
	maximum = 0.0014 (at node 22)
Accepted packet rate average = 0.00046875
	minimum = 0 (at node 0)
	maximum = 0.0014 (at node 50)
Injected flit rate average = 0.00944062
	minimum = 0 (at node 0)
	maximum = 0.028 (at node 22)
Accepted flit rate average= 0.009375
	minimum = 0 (at node 0)
	maximum = 0.028 (at node 50)
Injected packet length average = 19.875
Accepted packet length average = 20
Total in-flight flits = 40 (40 measured)
latency change    = 0.00634317
throughput change = 0.0441667
Draining all recorded packets ...
Draining remaining packets ...
Time taken is 8114 cycles
====== Overall Traffic Statistics ======
====== Traffic class 0 ======
Packet latency average = 44.3618 (1 samples)
	minimum = 25 (1 samples)
	maximum = 86 (1 samples)
Network latency average = 44.0132 (1 samples)
	minimum = 25 (1 samples)
	maximum = 86 (1 samples)
Flit latency average = 24.4971 (1 samples)
	minimum = 6 (1 samples)
	maximum = 67 (1 samples)
Fragmentation average = 0.907895 (1 samples)
	minimum = 0 (1 samples)
	maximum = 24 (1 samples)
Injected packet rate average = 0.000475 (1 samples)
	minimum = 0 (1 samples)
	maximum = 0.0014 (1 samples)
Accepted packet rate average = 0.00046875 (1 samples)
	minimum = 0 (1 samples)
	maximum = 0.0014 (1 samples)
Injected flit rate average = 0.00944062 (1 samples)
	minimum = 0 (1 samples)
	maximum = 0.028 (1 samples)
Accepted flit rate average = 0.009375 (1 samples)
	minimum = 0 (1 samples)
	maximum = 0.028 (1 samples)
Injected packet size average = 19.875 (1 samples)
Accepted packet size average = 20 (1 samples)
Hops average = 5.52632 (1 samples)
Total run time 0.713634
