BEGIN Configuration File: ../../IL2236_project/verify/figure2/ROMM/mesh88_lat
// $Id$

// Copyright (c) 2007-2015, Trustees of The Leland Stanford Junior University
// All rights reserved.
//
// Redistribution and use in source and binary forms, with or without
// modification, are permitted provided that the following conditions are met:
//
// Redistributions of source code must retain the above copyright notice, this
// list of conditions and the following disclaimer.
// Redistributions in binary form must reproduce the above copyright notice,
// this list of conditions and the following disclaimer in the documentation
// and/or other materials provided with the distribution.
//
// THIS SOFTWARE IS PROVIDED BY THE COPYRIGHT HOLDERS AND CONTRIBUTORS "AS IS"
// AND ANY EXPRESS OR IMPLIED WARRANTIES, INCLUDING, BUT NOT LIMITED TO, THE
// IMPLIED WARRANTIES OF MERCHANTABILITY AND FITNESS FOR A PARTICULAR PURPOSE
// ARE DISCLAIMED. IN NO EVENT SHALL THE COPYRIGHT OWNER OR CONTRIBUTORS BE
// LIABLE FOR ANY DIRECT, INDIRECT, INCIDENTAL, SPECIAL, EXEMPLARY, OR
// CONSEQUENTIAL DAMAGES (INCLUDING, BUT NOT LIMITED TO, PROCUREMENT OF
// SUBSTITUTE GOODS OR SERVICES; LOSS OF USE, DATA, OR PROFITS; OR BUSINESS
// INTERRUPTION) HOWEVER CAUSED AND ON ANY THEORY OF LIABILITY, WHETHER IN
// CONTRACT, STRICT LIABILITY, OR TORT (INCLUDING NEGLIGENCE OR OTHERWISE)
// ARISING IN ANY WAY OUT OF THE USE OF THIS SOFTWARE, EVEN IF ADVISED OF THE
// POSSIBILITY OF SUCH DAMAGE.

//8X8 mesh with 20 flits per packet under injection mode
//injection rate here is packet per cycle, NOT flit per cycle

// Topology

topology = mesh;
k = 8;
n = 2;

// Routing
routing_function = romm;

// Flow control
num_vcs     = 8;
vc_buf_size = 8;
wait_for_tail_credit = 1;

// Router architecture
vc_allocator = islip;
sw_allocator = islip;
alloc_iters  = 1;

credit_delay   = 2;
routing_delay  = 0;
vc_alloc_delay = 1;
sw_alloc_delay = 1;

input_speedup     = 2;
output_speedup    = 1;
internal_speedup  = 1.0;


// Traffic
traffic = transpose;
packet_size = 20;


// Simulation
sim_type = latency;

injection_rate = .0020;


END Configuration File: ../../IL2236_project/verify/figure2/ROMM/mesh88_lat
Class 0:
Packet latency average = 48.5221
	minimum = 25
	maximum = 87
Network latency average = 48.1858
	minimum = 25
	maximum = 87
Slowest packet = 98
Flit latency average = 27.273
	minimum = 6
	maximum = 68
Slowest flit = 1979
Fragmentation average = 3.40708
	minimum = 0
	maximum = 31
Injected packet rate average = 0.0018125
	minimum = 0 (at node 1)
	maximum = 0.006 (at node 27)
Accepted packet rate average = 0.00176563
	minimum = 0 (at node 7)
	maximum = 0.006 (at node 27)
Injected flit rate average = 0.035875
	minimum = 0 (at node 1)
	maximum = 0.12 (at node 27)
Accepted flit rate average= 0.0354219
	minimum = 0 (at node 7)
	maximum = 0.12 (at node 27)
Injected packet length average = 19.7931
Accepted packet length average = 20.0619
Total in-flight flits = 53 (0 measured)
latency change    = 1
throughput change = 1
Class 0:
Packet latency average = 48.5546
	minimum = 25
	maximum = 87
Network latency average = 48.0798
	minimum = 25
	maximum = 87
Slowest packet = 98
Flit latency average = 27.7169
	minimum = 6
	maximum = 68
Slowest flit = 1979
Fragmentation average = 2.32773
	minimum = 0
	maximum = 31
Injected packet rate average = 0.00189062
	minimum = 0 (at node 9)
	maximum = 0.004 (at node 16)
Accepted packet rate average = 0.00185937
	minimum = 0 (at node 9)
	maximum = 0.004 (at node 2)
Injected flit rate average = 0.0377422
	minimum = 0 (at node 9)
	maximum = 0.08 (at node 16)
Accepted flit rate average= 0.0372813
	minimum = 0 (at node 9)
	maximum = 0.08 (at node 2)
Injected packet length average = 19.9628
Accepted packet length average = 20.0504
Total in-flight flits = 68 (0 measured)
latency change    = 0.000669307
throughput change = 0.0498743
Class 0:
Packet latency average = 47.8151
	minimum = 25
	maximum = 85
Network latency average = 47.4202
	minimum = 25
	maximum = 85
Slowest packet = 333
Flit latency average = 27.4128
	minimum = 6
	maximum = 66
Slowest flit = 6670
Fragmentation average = 1.84874
	minimum = 0
	maximum = 18
Injected packet rate average = 0.00190625
	minimum = 0 (at node 2)
	maximum = 0.005 (at node 12)
Accepted packet rate average = 0.00185937
	minimum = 0 (at node 4)
	maximum = 0.005 (at node 10)
Injected flit rate average = 0.0379531
	minimum = 0 (at node 2)
	maximum = 0.1 (at node 12)
Accepted flit rate average= 0.0375469
	minimum = 0 (at node 4)
	maximum = 0.1 (at node 10)
Injected packet length average = 19.9098
Accepted packet length average = 20.1933
Total in-flight flits = 105 (0 measured)
latency change    = 0.0154657
throughput change = 0.00707449
Warmed up ...Time used is 3000 cycles
Class 0:
Packet latency average = 45.144
	minimum = 25
	maximum = 83
Network latency average = 44.568
	minimum = 25
	maximum = 83
Slowest packet = 403
Flit latency average = 25.8055
	minimum = 6
	maximum = 65
Slowest flit = 7127
Fragmentation average = 1.064
	minimum = 0
	maximum = 21
Injected packet rate average = 0.00209375
	minimum = 0 (at node 7)
	maximum = 0.007 (at node 21)
Accepted packet rate average = 0.0020625
	minimum = 0 (at node 4)
	maximum = 0.006 (at node 0)
Injected flit rate average = 0.042
	minimum = 0 (at node 7)
	maximum = 0.131 (at node 21)
Accepted flit rate average= 0.041375
	minimum = 0 (at node 4)
	maximum = 0.12 (at node 0)
Injected packet length average = 20.0597
Accepted packet length average = 20.0606
Total in-flight flits = 137 (137 measured)
latency change    = 0.059169
throughput change = 0.0925227
Class 0:
Packet latency average = 47.3151
	minimum = 25
	maximum = 95
Network latency average = 46.7227
	minimum = 25
	maximum = 95
Slowest packet = 502
Flit latency average = 27.1336
	minimum = 6
	maximum = 76
Slowest flit = 10059
Fragmentation average = 1.5084
	minimum = 0
	maximum = 24
Injected packet rate average = 0.00190625
	minimum = 0 (at node 23)
	maximum = 0.0045 (at node 47)
Accepted packet rate average = 0.00191406
	minimum = 0 (at node 47)
	maximum = 0.0045 (at node 61)
Injected flit rate average = 0.0380781
	minimum = 0 (at node 23)
	maximum = 0.083 (at node 47)
Accepted flit rate average= 0.0382422
	minimum = 0 (at node 47)
	maximum = 0.0895 (at node 61)
Injected packet length average = 19.9754
Accepted packet length average = 19.9796
Total in-flight flits = 90 (90 measured)
latency change    = 0.0458865
throughput change = 0.0819203
Class 0:
Packet latency average = 48.4737
	minimum = 25
	maximum = 97
Network latency average = 47.8892
	minimum = 25
	maximum = 97
Slowest packet = 700
Flit latency average = 28.0471
	minimum = 6
	maximum = 78
Slowest flit = 14019
Fragmentation average = 1.78393
	minimum = 0
	maximum = 24
Injected packet rate average = 0.00190104
	minimum = 0 (at node 23)
	maximum = 0.00366667 (at node 22)
Accepted packet rate average = 0.00191667
	minimum = 0 (at node 47)
	maximum = 0.00366667 (at node 61)
Injected flit rate average = 0.0380885
	minimum = 0 (at node 23)
	maximum = 0.071 (at node 22)
Accepted flit rate average= 0.038151
	minimum = 0 (at node 47)
	maximum = 0.073 (at node 61)
Injected packet length average = 20.0356
Accepted packet length average = 19.9049
Total in-flight flits = 80 (80 measured)
latency change    = 0.0239008
throughput change = 0.00238908
Class 0:
Packet latency average = 48.1714
	minimum = 25
	maximum = 97
Network latency average = 47.4531
	minimum = 25
	maximum = 97
Slowest packet = 700
Flit latency average = 27.4651
	minimum = 6
	maximum = 78
Slowest flit = 14019
Fragmentation average = 1.98776
	minimum = 0
	maximum = 25
Injected packet rate average = 0.00193359
	minimum = 0.00025 (at node 23)
	maximum = 0.0035 (at node 40)
Accepted packet rate average = 0.00194141
	minimum = 0.00025 (at node 58)
	maximum = 0.0035 (at node 5)
Injected flit rate average = 0.0386445
	minimum = 0.005 (at node 23)
	maximum = 0.07 (at node 40)
Accepted flit rate average= 0.0388047
	minimum = 0.005 (at node 58)
	maximum = 0.07 (at node 5)
Injected packet length average = 19.9859
Accepted packet length average = 19.9879
Total in-flight flits = 71 (71 measured)
latency change    = 0.00627458
throughput change = 0.0168445
Class 0:
Packet latency average = 47.8696
	minimum = 25
	maximum = 97
Network latency average = 47.2206
	minimum = 25
	maximum = 97
Slowest packet = 700
Flit latency average = 27.294
	minimum = 6
	maximum = 78
Slowest flit = 14019
Fragmentation average = 1.92432
	minimum = 0
	maximum = 25
Injected packet rate average = 0.0019625
	minimum = 0.0006 (at node 33)
	maximum = 0.0036 (at node 55)
Accepted packet rate average = 0.0019625
	minimum = 0.0006 (at node 12)
	maximum = 0.0036 (at node 62)
Injected flit rate average = 0.0392812
	minimum = 0.012 (at node 33)
	maximum = 0.072 (at node 55)
Accepted flit rate average= 0.0393219
	minimum = 0.012 (at node 12)
	maximum = 0.072 (at node 62)
Injected packet length average = 20.0159
Accepted packet length average = 20.0366
Total in-flight flits = 82 (82 measured)
latency change    = 0.00630596
throughput change = 0.0131527
Draining all recorded packets ...
Draining remaining packets ...
Time taken is 8110 cycles
====== Overall Traffic Statistics ======
====== Traffic class 0 ======
Packet latency average = 47.9459 (1 samples)
	minimum = 25 (1 samples)
	maximum = 97 (1 samples)
Network latency average = 47.3041 (1 samples)
	minimum = 25 (1 samples)
	maximum = 97 (1 samples)
Flit latency average = 27.3692 (1 samples)
	minimum = 6 (1 samples)
	maximum = 78 (1 samples)
Fragmentation average = 1.90287 (1 samples)
	minimum = 0 (1 samples)
	maximum = 25 (1 samples)
Injected packet rate average = 0.0019625 (1 samples)
	minimum = 0.0006 (1 samples)
	maximum = 0.0036 (1 samples)
Accepted packet rate average = 0.0019625 (1 samples)
	minimum = 0.0006 (1 samples)
	maximum = 0.0036 (1 samples)
Injected flit rate average = 0.0392812 (1 samples)
	minimum = 0.012 (1 samples)
	maximum = 0.072 (1 samples)
Accepted flit rate average = 0.0393219 (1 samples)
	minimum = 0.012 (1 samples)
	maximum = 0.072 (1 samples)
Injected packet size average = 20.0159 (1 samples)
Accepted packet size average = 20.0366 (1 samples)
Hops average = 6.09873 (1 samples)
Total run time 1.15497
