BEGIN Configuration File: ../../IL2236_project/verify/figure2/ROMM/mesh88_lat
// $Id$

// Copyright (c) 2007-2015, Trustees of The Leland Stanford Junior University
// All rights reserved.
//
// Redistribution and use in source and binary forms, with or without
// modification, are permitted provided that the following conditions are met:
//
// Redistributions of source code must retain the above copyright notice, this
// list of conditions and the following disclaimer.
// Redistributions in binary form must reproduce the above copyright notice,
// this list of conditions and the following disclaimer in the documentation
// and/or other materials provided with the distribution.
//
// THIS SOFTWARE IS PROVIDED BY THE COPYRIGHT HOLDERS AND CONTRIBUTORS "AS IS"
// AND ANY EXPRESS OR IMPLIED WARRANTIES, INCLUDING, BUT NOT LIMITED TO, THE
// IMPLIED WARRANTIES OF MERCHANTABILITY AND FITNESS FOR A PARTICULAR PURPOSE
// ARE DISCLAIMED. IN NO EVENT SHALL THE COPYRIGHT OWNER OR CONTRIBUTORS BE
// LIABLE FOR ANY DIRECT, INDIRECT, INCIDENTAL, SPECIAL, EXEMPLARY, OR
// CONSEQUENTIAL DAMAGES (INCLUDING, BUT NOT LIMITED TO, PROCUREMENT OF
// SUBSTITUTE GOODS OR SERVICES; LOSS OF USE, DATA, OR PROFITS; OR BUSINESS
// INTERRUPTION) HOWEVER CAUSED AND ON ANY THEORY OF LIABILITY, WHETHER IN
// CONTRACT, STRICT LIABILITY, OR TORT (INCLUDING NEGLIGENCE OR OTHERWISE)
// ARISING IN ANY WAY OUT OF THE USE OF THIS SOFTWARE, EVEN IF ADVISED OF THE
// POSSIBILITY OF SUCH DAMAGE.

//8X8 mesh with 20 flits per packet under injection mode
//injection rate here is packet per cycle, NOT flit per cycle

// Topology

topology = mesh;
k = 8;
n = 2;

// Routing
routing_function = romm;

// Flow control
num_vcs     = 8;
vc_buf_size = 8;
wait_for_tail_credit = 1;

// Router architecture
vc_allocator = islip;
sw_allocator = islip;
alloc_iters  = 1;

credit_delay   = 2;
routing_delay  = 0;
vc_alloc_delay = 1;
sw_alloc_delay = 1;

input_speedup     = 2;
output_speedup    = 1;
internal_speedup  = 1.0;


// Traffic
traffic = transpose;
packet_size = 20;


// Simulation
sim_type = latency;

injection_rate = .0040;


END Configuration File: ../../IL2236_project/verify/figure2/ROMM/mesh88_lat
Class 0:
Packet latency average = 52.8
	minimum = 25
	maximum = 116
Network latency average = 51.7556
	minimum = 25
	maximum = 116
Slowest packet = 11
Flit latency average = 29.3167
	minimum = 6
	maximum = 97
Slowest flit = 233
Fragmentation average = 6.39111
	minimum = 0
	maximum = 52
Injected packet rate average = 0.00364063
	minimum = 0 (at node 50)
	maximum = 0.01 (at node 8)
Accepted packet rate average = 0.00351563
	minimum = 0 (at node 22)
	maximum = 0.009 (at node 1)
Injected flit rate average = 0.0720781
	minimum = 0 (at node 50)
	maximum = 0.2 (at node 8)
Accepted flit rate average= 0.071
	minimum = 0 (at node 22)
	maximum = 0.187 (at node 1)
Injected packet length average = 19.7983
Accepted packet length average = 20.1956
Total in-flight flits = 116 (0 measured)
latency change    = 1
throughput change = 1
Class 0:
Packet latency average = 53.2541
	minimum = 25
	maximum = 116
Network latency average = 52.2913
	minimum = 25
	maximum = 116
Slowest packet = 11
Flit latency average = 29.7547
	minimum = 6
	maximum = 97
Slowest flit = 233
Fragmentation average = 6.40289
	minimum = 0
	maximum = 52
Injected packet rate average = 0.00389844
	minimum = 0.0015 (at node 14)
	maximum = 0.007 (at node 8)
Accepted packet rate average = 0.00378125
	minimum = 0.0015 (at node 14)
	maximum = 0.007 (at node 1)
Injected flit rate average = 0.0774062
	minimum = 0.03 (at node 14)
	maximum = 0.14 (at node 8)
Accepted flit rate average= 0.0758594
	minimum = 0.03 (at node 14)
	maximum = 0.14 (at node 1)
Injected packet length average = 19.8557
Accepted packet length average = 20.062
Total in-flight flits = 270 (0 measured)
latency change    = 0.00852764
throughput change = 0.0640577
Class 0:
Packet latency average = 52.9583
	minimum = 25
	maximum = 135
Network latency average = 51.8485
	minimum = 25
	maximum = 108
Slowest packet = 579
Flit latency average = 29.2395
	minimum = 6
	maximum = 89
Slowest flit = 12219
Fragmentation average = 6.51894
	minimum = 0
	maximum = 62
Injected packet rate average = 0.00414063
	minimum = 0 (at node 3)
	maximum = 0.009 (at node 2)
Accepted packet rate average = 0.004125
	minimum = 0 (at node 24)
	maximum = 0.009 (at node 31)
Injected flit rate average = 0.08375
	minimum = 0 (at node 3)
	maximum = 0.18 (at node 2)
Accepted flit rate average= 0.0838281
	minimum = 0 (at node 24)
	maximum = 0.177 (at node 16)
Injected packet length average = 20.2264
Accepted packet length average = 20.322
Total in-flight flits = 205 (0 measured)
latency change    = 0.0055855
throughput change = 0.0950606
Warmed up ...Time used is 3000 cycles
Class 0:
Packet latency average = 50.2167
	minimum = 25
	maximum = 108
Network latency average = 49.6042
	minimum = 25
	maximum = 108
Slowest packet = 812
Flit latency average = 28.1868
	minimum = 6
	maximum = 89
Slowest flit = 16259
Fragmentation average = 5.4
	minimum = 0
	maximum = 38
Injected packet rate average = 0.00392188
	minimum = 0 (at node 4)
	maximum = 0.009 (at node 48)
Accepted packet rate average = 0.004
	minimum = 0 (at node 4)
	maximum = 0.01 (at node 6)
Injected flit rate average = 0.0780469
	minimum = 0 (at node 4)
	maximum = 0.18 (at node 48)
Accepted flit rate average= 0.0789688
	minimum = 0 (at node 4)
	maximum = 0.186 (at node 6)
Injected packet length average = 19.9004
Accepted packet length average = 19.7422
Total in-flight flits = 171 (171 measured)
latency change    = 0.0545967
throughput change = 0.0615354
Class 0:
Packet latency average = 51.6099
	minimum = 25
	maximum = 129
Network latency average = 50.9418
	minimum = 25
	maximum = 129
Slowest packet = 1199
Flit latency average = 28.8675
	minimum = 6
	maximum = 110
Slowest flit = 23999
Fragmentation average = 5.93319
	minimum = 0
	maximum = 48
Injected packet rate average = 0.00373437
	minimum = 0.001 (at node 4)
	maximum = 0.0065 (at node 62)
Accepted packet rate average = 0.00375
	minimum = 0.001 (at node 18)
	maximum = 0.0065 (at node 55)
Injected flit rate average = 0.0743828
	minimum = 0.02 (at node 4)
	maximum = 0.13 (at node 62)
Accepted flit rate average= 0.0747266
	minimum = 0.02 (at node 18)
	maximum = 0.13 (at node 55)
Injected packet length average = 19.9184
Accepted packet length average = 19.9271
Total in-flight flits = 200 (200 measured)
latency change    = 0.0269957
throughput change = 0.0567695
Class 0:
Packet latency average = 52.649
	minimum = 25
	maximum = 129
Network latency average = 51.7776
	minimum = 25
	maximum = 129
Slowest packet = 1199
Flit latency average = 29.5896
	minimum = 6
	maximum = 110
Slowest flit = 23999
Fragmentation average = 5.87273
	minimum = 0
	maximum = 48
Injected packet rate average = 0.00375
	minimum = 0.00133333 (at node 18)
	maximum = 0.006 (at node 14)
Accepted packet rate average = 0.00380729
	minimum = 0.00133333 (at node 18)
	maximum = 0.006 (at node 49)
Injected flit rate average = 0.075026
	minimum = 0.0266667 (at node 18)
	maximum = 0.12 (at node 14)
Accepted flit rate average= 0.0756354
	minimum = 0.0266667 (at node 18)
	maximum = 0.114333 (at node 49)
Injected packet length average = 20.0069
Accepted packet length average = 19.8659
Total in-flight flits = 83 (83 measured)
latency change    = 0.0197352
throughput change = 0.0120163
Class 0:
Packet latency average = 54.1607
	minimum = 25
	maximum = 142
Network latency average = 53.139
	minimum = 25
	maximum = 142
Slowest packet = 1584
Flit latency average = 30.3618
	minimum = 6
	maximum = 123
Slowest flit = 31699
Fragmentation average = 6.79918
	minimum = 0
	maximum = 87
Injected packet rate average = 0.00385547
	minimum = 0.00125 (at node 23)
	maximum = 0.00575 (at node 50)
Accepted packet rate average = 0.00385547
	minimum = 0.00125 (at node 58)
	maximum = 0.00575 (at node 22)
Injected flit rate average = 0.0768242
	minimum = 0.025 (at node 23)
	maximum = 0.115 (at node 50)
Accepted flit rate average= 0.0769023
	minimum = 0.025 (at node 58)
	maximum = 0.115 (at node 22)
Injected packet length average = 19.926
Accepted packet length average = 19.9463
Total in-flight flits = 258 (258 measured)
latency change    = 0.0279116
throughput change = 0.0164745
Class 0:
Packet latency average = 54.201
	minimum = 25
	maximum = 142
Network latency average = 53.2796
	minimum = 25
	maximum = 142
Slowest packet = 1584
Flit latency average = 30.3799
	minimum = 6
	maximum = 123
Slowest flit = 31699
Fragmentation average = 6.98947
	minimum = 0
	maximum = 87
Injected packet rate average = 0.0038875
	minimum = 0.0014 (at node 23)
	maximum = 0.006 (at node 50)
Accepted packet rate average = 0.00390625
	minimum = 0.0014 (at node 58)
	maximum = 0.006 (at node 22)
Injected flit rate average = 0.0776312
	minimum = 0.028 (at node 23)
	maximum = 0.12 (at node 50)
Accepted flit rate average= 0.0778656
	minimum = 0.028 (at node 58)
	maximum = 0.12 (at node 22)
Injected packet length average = 19.9695
Accepted packet length average = 19.9336
Total in-flight flits = 168 (168 measured)
latency change    = 0.000743775
throughput change = 0.0123711
Draining all recorded packets ...
Draining remaining packets ...
Time taken is 8129 cycles
====== Overall Traffic Statistics ======
====== Traffic class 0 ======
Packet latency average = 54.2058 (1 samples)
	minimum = 25 (1 samples)
	maximum = 142 (1 samples)
Network latency average = 53.2918 (1 samples)
	minimum = 25 (1 samples)
	maximum = 142 (1 samples)
Flit latency average = 30.4231 (1 samples)
	minimum = 6 (1 samples)
	maximum = 123 (1 samples)
Fragmentation average = 6.95418 (1 samples)
	minimum = 0 (1 samples)
	maximum = 87 (1 samples)
Injected packet rate average = 0.0038875 (1 samples)
	minimum = 0.0014 (1 samples)
	maximum = 0.006 (1 samples)
Accepted packet rate average = 0.00390625 (1 samples)
	minimum = 0.0014 (1 samples)
	maximum = 0.006 (1 samples)
Injected flit rate average = 0.0776312 (1 samples)
	minimum = 0.028 (1 samples)
	maximum = 0.12 (1 samples)
Accepted flit rate average = 0.0778656 (1 samples)
	minimum = 0.028 (1 samples)
	maximum = 0.12 (1 samples)
Injected packet size average = 19.9695 (1 samples)
Accepted packet size average = 19.9336 (1 samples)
Hops average = 6.3119 (1 samples)
Total run time 1.86772
