BEGIN Configuration File: ../../IL2236_project/verify/figure2/ROMM/mesh88_lat
// $Id$

// Copyright (c) 2007-2015, Trustees of The Leland Stanford Junior University
// All rights reserved.
//
// Redistribution and use in source and binary forms, with or without
// modification, are permitted provided that the following conditions are met:
//
// Redistributions of source code must retain the above copyright notice, this
// list of conditions and the following disclaimer.
// Redistributions in binary form must reproduce the above copyright notice,
// this list of conditions and the following disclaimer in the documentation
// and/or other materials provided with the distribution.
//
// THIS SOFTWARE IS PROVIDED BY THE COPYRIGHT HOLDERS AND CONTRIBUTORS "AS IS"
// AND ANY EXPRESS OR IMPLIED WARRANTIES, INCLUDING, BUT NOT LIMITED TO, THE
// IMPLIED WARRANTIES OF MERCHANTABILITY AND FITNESS FOR A PARTICULAR PURPOSE
// ARE DISCLAIMED. IN NO EVENT SHALL THE COPYRIGHT OWNER OR CONTRIBUTORS BE
// LIABLE FOR ANY DIRECT, INDIRECT, INCIDENTAL, SPECIAL, EXEMPLARY, OR
// CONSEQUENTIAL DAMAGES (INCLUDING, BUT NOT LIMITED TO, PROCUREMENT OF
// SUBSTITUTE GOODS OR SERVICES; LOSS OF USE, DATA, OR PROFITS; OR BUSINESS
// INTERRUPTION) HOWEVER CAUSED AND ON ANY THEORY OF LIABILITY, WHETHER IN
// CONTRACT, STRICT LIABILITY, OR TORT (INCLUDING NEGLIGENCE OR OTHERWISE)
// ARISING IN ANY WAY OUT OF THE USE OF THIS SOFTWARE, EVEN IF ADVISED OF THE
// POSSIBILITY OF SUCH DAMAGE.

//8X8 mesh with 20 flits per packet under injection mode
//injection rate here is packet per cycle, NOT flit per cycle

// Topology

topology = mesh;
k = 8;
n = 2;

// Routing
routing_function = romm;

// Flow control
num_vcs     = 8;
vc_buf_size = 8;
wait_for_tail_credit = 1;

// Router architecture
vc_allocator = islip;
sw_allocator = islip;
alloc_iters  = 1;

credit_delay   = 2;
routing_delay  = 0;
vc_alloc_delay = 1;
sw_alloc_delay = 1;

input_speedup     = 2;
output_speedup    = 1;
internal_speedup  = 1.0;


// Traffic
traffic = transpose;
packet_size = 20;


// Simulation
sim_type = latency;

injection_rate = .0060;


END Configuration File: ../../IL2236_project/verify/figure2/ROMM/mesh88_lat
Class 0:
Packet latency average = 61.4
	minimum = 25
	maximum = 158
Network latency average = 60.4486
	minimum = 25
	maximum = 148
Slowest packet = 12
Flit latency average = 34.2958
	minimum = 6
	maximum = 129
Slowest flit = 259
Fragmentation average = 12.72
	minimum = 0
	maximum = 93
Injected packet rate average = 0.00567187
	minimum = 0.001 (at node 18)
	maximum = 0.012 (at node 32)
Accepted packet rate average = 0.00546875
	minimum = 0.001 (at node 18)
	maximum = 0.011 (at node 4)
Injected flit rate average = 0.112406
	minimum = 0.02 (at node 18)
	maximum = 0.24 (at node 32)
Accepted flit rate average= 0.109969
	minimum = 0.02 (at node 18)
	maximum = 0.229 (at node 12)
Injected packet length average = 19.8182
Accepted packet length average = 20.1086
Total in-flight flits = 222 (0 measured)
latency change    = 1
throughput change = 1
Class 0:
Packet latency average = 58.5446
	minimum = 25
	maximum = 158
Network latency average = 57.3106
	minimum = 25
	maximum = 148
Slowest packet = 12
Flit latency average = 31.9287
	minimum = 6
	maximum = 129
Slowest flit = 259
Fragmentation average = 11.1337
	minimum = 0
	maximum = 93
Injected packet rate average = 0.00580469
	minimum = 0.0025 (at node 35)
	maximum = 0.0115 (at node 33)
Accepted packet rate average = 0.00560937
	minimum = 0.0025 (at node 10)
	maximum = 0.011 (at node 12)
Injected flit rate average = 0.115312
	minimum = 0.05 (at node 35)
	maximum = 0.23 (at node 33)
Accepted flit rate average= 0.113422
	minimum = 0.05 (at node 10)
	maximum = 0.2255 (at node 12)
Injected packet length average = 19.8654
Accepted packet length average = 20.2201
Total in-flight flits = 342 (0 measured)
latency change    = 0.0487736
throughput change = 0.030445
Class 0:
Packet latency average = 59.0156
	minimum = 25
	maximum = 154
Network latency average = 57.099
	minimum = 25
	maximum = 126
Slowest packet = 760
Flit latency average = 31.8135
	minimum = 6
	maximum = 104
Slowest flit = 16659
Fragmentation average = 11.099
	minimum = 0
	maximum = 76
Injected packet rate average = 0.00590625
	minimum = 0 (at node 36)
	maximum = 0.013 (at node 44)
Accepted packet rate average = 0.006
	minimum = 0.001 (at node 17)
	maximum = 0.013 (at node 26)
Injected flit rate average = 0.118703
	minimum = 0 (at node 36)
	maximum = 0.261 (at node 44)
Accepted flit rate average= 0.118313
	minimum = 0.006 (at node 36)
	maximum = 0.26 (at node 26)
Injected packet length average = 20.0979
Accepted packet length average = 19.7188
Total in-flight flits = 330 (0 measured)
latency change    = 0.0079819
throughput change = 0.0413365
Warmed up ...Time used is 3000 cycles
Class 0:
Packet latency average = 60.4781
	minimum = 25
	maximum = 147
Network latency average = 58.6327
	minimum = 25
	maximum = 139
Slowest packet = 1138
Flit latency average = 33.2148
	minimum = 6
	maximum = 120
Slowest flit = 22779
Fragmentation average = 12.3294
	minimum = 0
	maximum = 82
Injected packet rate average = 0.00573437
	minimum = 0.003 (at node 1)
	maximum = 0.012 (at node 33)
Accepted packet rate average = 0.00565625
	minimum = 0.002 (at node 8)
	maximum = 0.012 (at node 12)
Injected flit rate average = 0.114172
	minimum = 0.043 (at node 1)
	maximum = 0.24 (at node 33)
Accepted flit rate average= 0.114281
	minimum = 0.04 (at node 8)
	maximum = 0.24 (at node 12)
Injected packet length average = 19.9101
Accepted packet length average = 20.2044
Total in-flight flits = 356 (356 measured)
latency change    = 0.0241824
throughput change = 0.0352748
Class 0:
Packet latency average = 59.7041
	minimum = 25
	maximum = 194
Network latency average = 58.1437
	minimum = 25
	maximum = 194
Slowest packet = 1669
Flit latency average = 32.6414
	minimum = 6
	maximum = 175
Slowest flit = 33399
Fragmentation average = 12.0413
	minimum = 0
	maximum = 121
Injected packet rate average = 0.005625
	minimum = 0.002 (at node 32)
	maximum = 0.011 (at node 50)
Accepted packet rate average = 0.00564062
	minimum = 0.002 (at node 4)
	maximum = 0.011 (at node 22)
Injected flit rate average = 0.11225
	minimum = 0.04 (at node 32)
	maximum = 0.22 (at node 50)
Accepted flit rate average= 0.113031
	minimum = 0.04 (at node 4)
	maximum = 0.22 (at node 22)
Injected packet length average = 19.9556
Accepted packet length average = 20.0388
Total in-flight flits = 262 (262 measured)
latency change    = 0.0129641
throughput change = 0.0110589
Class 0:
Packet latency average = 61.4816
	minimum = 25
	maximum = 194
Network latency average = 59.9491
	minimum = 25
	maximum = 194
Slowest packet = 1669
Flit latency average = 33.7205
	minimum = 6
	maximum = 175
Slowest flit = 33399
Fragmentation average = 13.1923
	minimum = 0
	maximum = 121
Injected packet rate average = 0.00561458
	minimum = 0.00266667 (at node 1)
	maximum = 0.01 (at node 50)
Accepted packet rate average = 0.005625
	minimum = 0.00266667 (at node 4)
	maximum = 0.01 (at node 22)
Injected flit rate average = 0.112161
	minimum = 0.0533333 (at node 1)
	maximum = 0.2 (at node 50)
Accepted flit rate average= 0.112677
	minimum = 0.0533333 (at node 4)
	maximum = 0.2 (at node 22)
Injected packet length average = 19.9768
Accepted packet length average = 20.0315
Total in-flight flits = 256 (256 measured)
latency change    = 0.028911
throughput change = 0.0031432
Draining all recorded packets ...
Draining remaining packets ...
Time taken is 6170 cycles
====== Overall Traffic Statistics ======
====== Traffic class 0 ======
Packet latency average = 61.4352 (1 samples)
	minimum = 25 (1 samples)
	maximum = 194 (1 samples)
Network latency average = 59.8713 (1 samples)
	minimum = 25 (1 samples)
	maximum = 194 (1 samples)
Flit latency average = 33.5893 (1 samples)
	minimum = 6 (1 samples)
	maximum = 175 (1 samples)
Fragmentation average = 13.163 (1 samples)
	minimum = 0 (1 samples)
	maximum = 121 (1 samples)
Injected packet rate average = 0.00561458 (1 samples)
	minimum = 0.00266667 (1 samples)
	maximum = 0.01 (1 samples)
Accepted packet rate average = 0.005625 (1 samples)
	minimum = 0.00266667 (1 samples)
	maximum = 0.01 (1 samples)
Injected flit rate average = 0.112161 (1 samples)
	minimum = 0.0533333 (1 samples)
	maximum = 0.2 (1 samples)
Accepted flit rate average = 0.112677 (1 samples)
	minimum = 0.0533333 (1 samples)
	maximum = 0.2 (1 samples)
Injected packet size average = 19.9768 (1 samples)
Accepted packet size average = 20.0315 (1 samples)
Hops average = 6.35185 (1 samples)
Total run time 1.86203
