BEGIN Configuration File: ../../IL2236_project/verify/figure2/ROMM/mesh88_lat
// $Id$

// Copyright (c) 2007-2015, Trustees of The Leland Stanford Junior University
// All rights reserved.
//
// Redistribution and use in source and binary forms, with or without
// modification, are permitted provided that the following conditions are met:
//
// Redistributions of source code must retain the above copyright notice, this
// list of conditions and the following disclaimer.
// Redistributions in binary form must reproduce the above copyright notice,
// this list of conditions and the following disclaimer in the documentation
// and/or other materials provided with the distribution.
//
// THIS SOFTWARE IS PROVIDED BY THE COPYRIGHT HOLDERS AND CONTRIBUTORS "AS IS"
// AND ANY EXPRESS OR IMPLIED WARRANTIES, INCLUDING, BUT NOT LIMITED TO, THE
// IMPLIED WARRANTIES OF MERCHANTABILITY AND FITNESS FOR A PARTICULAR PURPOSE
// ARE DISCLAIMED. IN NO EVENT SHALL THE COPYRIGHT OWNER OR CONTRIBUTORS BE
// LIABLE FOR ANY DIRECT, INDIRECT, INCIDENTAL, SPECIAL, EXEMPLARY, OR
// CONSEQUENTIAL DAMAGES (INCLUDING, BUT NOT LIMITED TO, PROCUREMENT OF
// SUBSTITUTE GOODS OR SERVICES; LOSS OF USE, DATA, OR PROFITS; OR BUSINESS
// INTERRUPTION) HOWEVER CAUSED AND ON ANY THEORY OF LIABILITY, WHETHER IN
// CONTRACT, STRICT LIABILITY, OR TORT (INCLUDING NEGLIGENCE OR OTHERWISE)
// ARISING IN ANY WAY OUT OF THE USE OF THIS SOFTWARE, EVEN IF ADVISED OF THE
// POSSIBILITY OF SUCH DAMAGE.

//8X8 mesh with 20 flits per packet under injection mode
//injection rate here is packet per cycle, NOT flit per cycle

// Topology

topology = mesh;
k = 8;
n = 2;

// Routing
routing_function = romm;

// Flow control
num_vcs     = 8;
vc_buf_size = 8;
wait_for_tail_credit = 1;

// Router architecture
vc_allocator = islip;
sw_allocator = islip;
alloc_iters  = 1;

credit_delay   = 2;
routing_delay  = 0;
vc_alloc_delay = 1;
sw_alloc_delay = 1;

input_speedup     = 2;
output_speedup    = 1;
internal_speedup  = 1.0;


// Traffic
traffic = transpose;
packet_size = 20;


// Simulation
sim_type = latency;

injection_rate = .0070;


END Configuration File: ../../IL2236_project/verify/figure2/ROMM/mesh88_lat
Class 0:
Packet latency average = 64.1386
	minimum = 25
	maximum = 200
Network latency average = 62.2896
	minimum = 25
	maximum = 200
Slowest packet = 146
Flit latency average = 34.7955
	minimum = 6
	maximum = 181
Slowest flit = 2939
Fragmentation average = 15.1584
	minimum = 0
	maximum = 125
Injected packet rate average = 0.00664062
	minimum = 0.002 (at node 0)
	maximum = 0.012 (at node 16)
Accepted packet rate average = 0.0063125
	minimum = 0.002 (at node 0)
	maximum = 0.011 (at node 2)
Injected flit rate average = 0.131656
	minimum = 0.04 (at node 0)
	maximum = 0.24 (at node 16)
Accepted flit rate average= 0.127531
	minimum = 0.04 (at node 0)
	maximum = 0.22 (at node 2)
Injected packet length average = 19.8259
Accepted packet length average = 20.203
Total in-flight flits = 338 (0 measured)
latency change    = 1
throughput change = 1
Class 0:
Packet latency average = 60.5012
	minimum = 25
	maximum = 200
Network latency average = 58.6271
	minimum = 25
	maximum = 200
Slowest packet = 146
Flit latency average = 32.6123
	minimum = 6
	maximum = 181
Slowest flit = 2939
Fragmentation average = 12.6634
	minimum = 0
	maximum = 125
Injected packet rate average = 0.00671875
	minimum = 0.0035 (at node 4)
	maximum = 0.011 (at node 16)
Accepted packet rate average = 0.00645312
	minimum = 0.003 (at node 15)
	maximum = 0.0105 (at node 2)
Injected flit rate average = 0.133461
	minimum = 0.07 (at node 4)
	maximum = 0.22 (at node 16)
Accepted flit rate average= 0.130875
	minimum = 0.063 (at node 15)
	maximum = 0.21 (at node 2)
Injected packet length average = 19.864
Accepted packet length average = 20.2809
Total in-flight flits = 448 (0 measured)
latency change    = 0.0601212
throughput change = 0.0255492
Class 0:
Packet latency average = 67.9567
	minimum = 25
	maximum = 205
Network latency average = 65.9004
	minimum = 25
	maximum = 205
Slowest packet = 870
Flit latency average = 37.2505
	minimum = 6
	maximum = 186
Slowest flit = 17419
Fragmentation average = 17.1342
	minimum = 0
	maximum = 118
Injected packet rate average = 0.00715625
	minimum = 0.001 (at node 20)
	maximum = 0.015 (at node 46)
Accepted packet rate average = 0.00721875
	minimum = 0.002 (at node 25)
	maximum = 0.015 (at node 53)
Injected flit rate average = 0.143594
	minimum = 0.02 (at node 20)
	maximum = 0.309 (at node 46)
Accepted flit rate average= 0.143031
	minimum = 0.026 (at node 34)
	maximum = 0.31 (at node 53)
Injected packet length average = 20.0655
Accepted packet length average = 19.8139
Total in-flight flits = 454 (0 measured)
latency change    = 0.10971
throughput change = 0.0849902
Warmed up ...Time used is 3000 cycles
Class 0:
Packet latency average = 61.9523
	minimum = 25
	maximum = 196
Network latency average = 59.4322
	minimum = 25
	maximum = 196
Slowest packet = 1497
Flit latency average = 33.4391
	minimum = 6
	maximum = 168
Slowest flit = 29952
Fragmentation average = 13.7337
	minimum = 0
	maximum = 111
Injected packet rate average = 0.00664062
	minimum = 0.002 (at node 20)
	maximum = 0.014 (at node 27)
Accepted packet rate average = 0.0066875
	minimum = 0.002 (at node 3)
	maximum = 0.014 (at node 27)
Injected flit rate average = 0.132344
	minimum = 0.04 (at node 20)
	maximum = 0.28 (at node 27)
Accepted flit rate average= 0.134281
	minimum = 0.04 (at node 3)
	maximum = 0.28 (at node 27)
Injected packet length average = 19.9294
Accepted packet length average = 20.0794
Total in-flight flits = 360 (360 measured)
latency change    = 0.0969206
throughput change = 0.0651617
Class 0:
Packet latency average = 63.6695
	minimum = 25
	maximum = 196
Network latency average = 61.1182
	minimum = 25
	maximum = 196
Slowest packet = 1497
Flit latency average = 34.1087
	minimum = 6
	maximum = 168
Slowest flit = 29952
Fragmentation average = 14.848
	minimum = 0
	maximum = 143
Injected packet rate average = 0.00667969
	minimum = 0.0025 (at node 30)
	maximum = 0.012 (at node 47)
Accepted packet rate average = 0.00671094
	minimum = 0.0025 (at node 51)
	maximum = 0.0125 (at node 61)
Injected flit rate average = 0.133367
	minimum = 0.05 (at node 30)
	maximum = 0.24 (at node 47)
Accepted flit rate average= 0.133883
	minimum = 0.05 (at node 51)
	maximum = 0.2495 (at node 61)
Injected packet length average = 19.9661
Accepted packet length average = 19.9499
Total in-flight flits = 417 (417 measured)
latency change    = 0.0269708
throughput change = 0.00297602
Class 0:
Packet latency average = 64.1562
	minimum = 25
	maximum = 211
Network latency average = 61.6739
	minimum = 25
	maximum = 211
Slowest packet = 2161
Flit latency average = 34.4282
	minimum = 6
	maximum = 178
Slowest flit = 43419
Fragmentation average = 14.9203
	minimum = 0
	maximum = 143
Injected packet rate average = 0.00657812
	minimum = 0.003 (at node 40)
	maximum = 0.01 (at node 2)
Accepted packet rate average = 0.006625
	minimum = 0.00266667 (at node 5)
	maximum = 0.01 (at node 16)
Injected flit rate average = 0.131458
	minimum = 0.0576667 (at node 40)
	maximum = 0.2 (at node 47)
Accepted flit rate average= 0.132359
	minimum = 0.0533333 (at node 5)
	maximum = 0.204 (at node 61)
Injected packet length average = 19.9842
Accepted packet length average = 19.9788
Total in-flight flits = 301 (301 measured)
latency change    = 0.00758646
throughput change = 0.0115099
Class 0:
Packet latency average = 64.7124
	minimum = 25
	maximum = 298
Network latency average = 62.3284
	minimum = 25
	maximum = 248
Slowest packet = 2161
Flit latency average = 34.787
	minimum = 6
	maximum = 229
Slowest flit = 54079
Fragmentation average = 15.3663
	minimum = 0
	maximum = 143
Injected packet rate average = 0.00671094
	minimum = 0.00275 (at node 40)
	maximum = 0.009 (at node 2)
Accepted packet rate average = 0.00671875
	minimum = 0.00275 (at node 5)
	maximum = 0.00925 (at node 16)
Injected flit rate average = 0.134086
	minimum = 0.055 (at node 40)
	maximum = 0.18225 (at node 2)
Accepted flit rate average= 0.13432
	minimum = 0.055 (at node 5)
	maximum = 0.185 (at node 16)
Injected packet length average = 19.9802
Accepted packet length average = 19.9919
Total in-flight flits = 428 (428 measured)
latency change    = 0.00859536
throughput change = 0.014599
Draining all recorded packets ...
Draining remaining packets ...
Time taken is 7175 cycles
====== Overall Traffic Statistics ======
====== Traffic class 0 ======
Packet latency average = 64.7789 (1 samples)
	minimum = 25 (1 samples)
	maximum = 298 (1 samples)
Network latency average = 62.3991 (1 samples)
	minimum = 25 (1 samples)
	maximum = 248 (1 samples)
Flit latency average = 34.7979 (1 samples)
	minimum = 6 (1 samples)
	maximum = 229 (1 samples)
Fragmentation average = 15.3386 (1 samples)
	minimum = 0 (1 samples)
	maximum = 143 (1 samples)
Injected packet rate average = 0.00671094 (1 samples)
	minimum = 0.00275 (1 samples)
	maximum = 0.009 (1 samples)
Accepted packet rate average = 0.00671875 (1 samples)
	minimum = 0.00275 (1 samples)
	maximum = 0.00925 (1 samples)
Injected flit rate average = 0.134086 (1 samples)
	minimum = 0.055 (1 samples)
	maximum = 0.18225 (1 samples)
Accepted flit rate average = 0.13432 (1 samples)
	minimum = 0.055 (1 samples)
	maximum = 0.185 (1 samples)
Injected packet size average = 19.9802 (1 samples)
Accepted packet size average = 19.9919 (1 samples)
Hops average = 6.17161 (1 samples)
Total run time 2.45673
