BEGIN Configuration File: ../../IL2236_project/verify/figure2/ROMM/mesh88_lat
// $Id$

// Copyright (c) 2007-2015, Trustees of The Leland Stanford Junior University
// All rights reserved.
//
// Redistribution and use in source and binary forms, with or without
// modification, are permitted provided that the following conditions are met:
//
// Redistributions of source code must retain the above copyright notice, this
// list of conditions and the following disclaimer.
// Redistributions in binary form must reproduce the above copyright notice,
// this list of conditions and the following disclaimer in the documentation
// and/or other materials provided with the distribution.
//
// THIS SOFTWARE IS PROVIDED BY THE COPYRIGHT HOLDERS AND CONTRIBUTORS "AS IS"
// AND ANY EXPRESS OR IMPLIED WARRANTIES, INCLUDING, BUT NOT LIMITED TO, THE
// IMPLIED WARRANTIES OF MERCHANTABILITY AND FITNESS FOR A PARTICULAR PURPOSE
// ARE DISCLAIMED. IN NO EVENT SHALL THE COPYRIGHT OWNER OR CONTRIBUTORS BE
// LIABLE FOR ANY DIRECT, INDIRECT, INCIDENTAL, SPECIAL, EXEMPLARY, OR
// CONSEQUENTIAL DAMAGES (INCLUDING, BUT NOT LIMITED TO, PROCUREMENT OF
// SUBSTITUTE GOODS OR SERVICES; LOSS OF USE, DATA, OR PROFITS; OR BUSINESS
// INTERRUPTION) HOWEVER CAUSED AND ON ANY THEORY OF LIABILITY, WHETHER IN
// CONTRACT, STRICT LIABILITY, OR TORT (INCLUDING NEGLIGENCE OR OTHERWISE)
// ARISING IN ANY WAY OUT OF THE USE OF THIS SOFTWARE, EVEN IF ADVISED OF THE
// POSSIBILITY OF SUCH DAMAGE.

//8X8 mesh with 20 flits per packet under injection mode
//injection rate here is packet per cycle, NOT flit per cycle

// Topology

topology = mesh;
k = 8;
n = 2;

// Routing
routing_function = romm;

// Flow control
num_vcs     = 8;
vc_buf_size = 8;
wait_for_tail_credit = 1;

// Router architecture
vc_allocator = islip;
sw_allocator = islip;
alloc_iters  = 1;

credit_delay   = 2;
routing_delay  = 0;
vc_alloc_delay = 1;
sw_alloc_delay = 1;

input_speedup     = 2;
output_speedup    = 1;
internal_speedup  = 1.0;


// Traffic
traffic = transpose;
packet_size = 20;


// Simulation
sim_type = latency;

injection_rate = .0155;


END Configuration File: ../../IL2236_project/verify/figure2/ROMM/mesh88_lat
Class 0:
Packet latency average = 131.307
	minimum = 25
	maximum = 468
Network latency average = 112.333
	minimum = 25
	maximum = 449
Slowest packet = 341
Flit latency average = 69.2049
	minimum = 6
	maximum = 430
Slowest flit = 8739
Fragmentation average = 42.4205
	minimum = 0
	maximum = 314
Injected packet rate average = 0.0146875
	minimum = 0.007 (at node 34)
	maximum = 0.021 (at node 36)
Accepted packet rate average = 0.0124844
	minimum = 0.004 (at node 23)
	maximum = 0.021 (at node 36)
Injected flit rate average = 0.289859
	minimum = 0.136 (at node 34)
	maximum = 0.42 (at node 36)
Accepted flit rate average= 0.261234
	minimum = 0.105 (at node 23)
	maximum = 0.42 (at node 36)
Injected packet length average = 19.7351
Accepted packet length average = 20.9249
Total in-flight flits = 2081 (0 measured)
latency change    = 1
throughput change = 1
Class 0:
Packet latency average = 178.881
	minimum = 25
	maximum = 1093
Network latency average = 132.026
	minimum = 25
	maximum = 894
Slowest packet = 855
Flit latency average = 83.8482
	minimum = 6
	maximum = 875
Slowest flit = 15799
Fragmentation average = 46.1682
	minimum = 0
	maximum = 314
Injected packet rate average = 0.0146094
	minimum = 0.0065 (at node 34)
	maximum = 0.022 (at node 47)
Accepted packet rate average = 0.0134219
	minimum = 0.006 (at node 20)
	maximum = 0.021 (at node 61)
Injected flit rate average = 0.289641
	minimum = 0.128 (at node 34)
	maximum = 0.431 (at node 47)
Accepted flit rate average= 0.274117
	minimum = 0.12 (at node 20)
	maximum = 0.426 (at node 61)
Injected packet length average = 19.8257
Accepted packet length average = 20.4232
Total in-flight flits = 2313 (0 measured)
latency change    = 0.265954
throughput change = 0.0469975
Class 0:
Packet latency average = 306.376
	minimum = 25
	maximum = 1545
Network latency average = 159.607
	minimum = 25
	maximum = 1191
Slowest packet = 1688
Flit latency average = 107.485
	minimum = 6
	maximum = 1172
Slowest flit = 26998
Fragmentation average = 48.2908
	minimum = 0
	maximum = 224
Injected packet rate average = 0.0143438
	minimum = 0.002 (at node 33)
	maximum = 0.025 (at node 55)
Accepted packet rate average = 0.0145625
	minimum = 0.005 (at node 12)
	maximum = 0.025 (at node 59)
Injected flit rate average = 0.28675
	minimum = 0.042 (at node 33)
	maximum = 0.491 (at node 55)
Accepted flit rate average= 0.290219
	minimum = 0.076 (at node 12)
	maximum = 0.494 (at node 50)
Injected packet length average = 19.9913
Accepted packet length average = 19.9292
Total in-flight flits = 2099 (0 measured)
latency change    = 0.416139
throughput change = 0.0554808
Warmed up ...Time used is 3000 cycles
Class 0:
Packet latency average = 346.995
	minimum = 25
	maximum = 1745
Network latency average = 137.278
	minimum = 25
	maximum = 546
Slowest packet = 2806
Flit latency average = 102.077
	minimum = 6
	maximum = 1282
Slowest flit = 41839
Fragmentation average = 47.1163
	minimum = 0
	maximum = 228
Injected packet rate average = 0.0145
	minimum = 0.009 (at node 43)
	maximum = 0.023 (at node 28)
Accepted packet rate average = 0.0145156
	minimum = 0.009 (at node 14)
	maximum = 0.025 (at node 35)
Injected flit rate average = 0.289172
	minimum = 0.18 (at node 52)
	maximum = 0.468 (at node 28)
Accepted flit rate average= 0.289641
	minimum = 0.178 (at node 38)
	maximum = 0.484 (at node 35)
Injected packet length average = 19.9429
Accepted packet length average = 19.9537
Total in-flight flits = 2122 (2122 measured)
latency change    = 0.117061
throughput change = 0.00199601
Class 0:
Packet latency average = 391.197
	minimum = 25
	maximum = 2036
Network latency average = 144.665
	minimum = 25
	maximum = 738
Slowest packet = 2806
Flit latency average = 100.445
	minimum = 6
	maximum = 1282
Slowest flit = 41839
Fragmentation average = 47.0671
	minimum = 0
	maximum = 232
Injected packet rate average = 0.0144063
	minimum = 0.008 (at node 5)
	maximum = 0.0225 (at node 28)
Accepted packet rate average = 0.0143438
	minimum = 0.0085 (at node 6)
	maximum = 0.023 (at node 35)
Injected flit rate average = 0.288
	minimum = 0.1605 (at node 5)
	maximum = 0.4515 (at node 28)
Accepted flit rate average= 0.286156
	minimum = 0.1665 (at node 40)
	maximum = 0.452 (at node 35)
Injected packet length average = 19.9913
Accepted packet length average = 19.9499
Total in-flight flits = 2351 (2351 measured)
latency change    = 0.112991
throughput change = 0.0121765
Class 0:
Packet latency average = 420.176
	minimum = 25
	maximum = 2403
Network latency average = 150.15
	minimum = 25
	maximum = 872
Slowest packet = 2806
Flit latency average = 102.269
	minimum = 6
	maximum = 1282
Slowest flit = 41839
Fragmentation average = 48.392
	minimum = 0
	maximum = 281
Injected packet rate average = 0.0143698
	minimum = 0.00966667 (at node 5)
	maximum = 0.0196667 (at node 28)
Accepted packet rate average = 0.0143646
	minimum = 0.00933333 (at node 40)
	maximum = 0.02 (at node 35)
Injected flit rate average = 0.287229
	minimum = 0.189333 (at node 5)
	maximum = 0.393 (at node 28)
Accepted flit rate average= 0.286953
	minimum = 0.188 (at node 40)
	maximum = 0.392667 (at node 35)
Injected packet length average = 19.9884
Accepted packet length average = 19.9764
Total in-flight flits = 2184 (2184 measured)
latency change    = 0.0689693
throughput change = 0.00277702
Class 0:
Packet latency average = 442.336
	minimum = 25
	maximum = 2563
Network latency average = 152.419
	minimum = 25
	maximum = 872
Slowest packet = 2806
Flit latency average = 102.103
	minimum = 6
	maximum = 1282
Slowest flit = 41839
Fragmentation average = 49.2932
	minimum = 0
	maximum = 281
Injected packet rate average = 0.0143203
	minimum = 0.00925 (at node 5)
	maximum = 0.01875 (at node 15)
Accepted packet rate average = 0.0142891
	minimum = 0.00925 (at node 40)
	maximum = 0.019 (at node 5)
Injected flit rate average = 0.286199
	minimum = 0.18575 (at node 5)
	maximum = 0.376 (at node 15)
Accepted flit rate average= 0.285941
	minimum = 0.18325 (at node 40)
	maximum = 0.3895 (at node 57)
Injected packet length average = 19.9855
Accepted packet length average = 20.0112
Total in-flight flits = 2218 (2218 measured)
latency change    = 0.0500967
throughput change = 0.0035382
Average latency for class 0 exceeded 500 cycles. Aborting simulation.
Too many sample periods needed to converge
Simulation unstable, ending ...
Total run time 4.90311
