BEGIN Configuration File: ../../IL2236_project/verify/figure2/ROMM/mesh88_lat
// $Id$

// Copyright (c) 2007-2015, Trustees of The Leland Stanford Junior University
// All rights reserved.
//
// Redistribution and use in source and binary forms, with or without
// modification, are permitted provided that the following conditions are met:
//
// Redistributions of source code must retain the above copyright notice, this
// list of conditions and the following disclaimer.
// Redistributions in binary form must reproduce the above copyright notice,
// this list of conditions and the following disclaimer in the documentation
// and/or other materials provided with the distribution.
//
// THIS SOFTWARE IS PROVIDED BY THE COPYRIGHT HOLDERS AND CONTRIBUTORS "AS IS"
// AND ANY EXPRESS OR IMPLIED WARRANTIES, INCLUDING, BUT NOT LIMITED TO, THE
// IMPLIED WARRANTIES OF MERCHANTABILITY AND FITNESS FOR A PARTICULAR PURPOSE
// ARE DISCLAIMED. IN NO EVENT SHALL THE COPYRIGHT OWNER OR CONTRIBUTORS BE
// LIABLE FOR ANY DIRECT, INDIRECT, INCIDENTAL, SPECIAL, EXEMPLARY, OR
// CONSEQUENTIAL DAMAGES (INCLUDING, BUT NOT LIMITED TO, PROCUREMENT OF
// SUBSTITUTE GOODS OR SERVICES; LOSS OF USE, DATA, OR PROFITS; OR BUSINESS
// INTERRUPTION) HOWEVER CAUSED AND ON ANY THEORY OF LIABILITY, WHETHER IN
// CONTRACT, STRICT LIABILITY, OR TORT (INCLUDING NEGLIGENCE OR OTHERWISE)
// ARISING IN ANY WAY OUT OF THE USE OF THIS SOFTWARE, EVEN IF ADVISED OF THE
// POSSIBILITY OF SUCH DAMAGE.

//8X8 mesh with 20 flits per packet under injection mode
//injection rate here is packet per cycle, NOT flit per cycle

// Topology

topology = mesh;
k = 8;
n = 2;

// Routing
routing_function = romm;

// Flow control
num_vcs     = 8;
vc_buf_size = 8;
wait_for_tail_credit = 1;

// Router architecture
vc_allocator = islip;
sw_allocator = islip;
alloc_iters  = 1;

credit_delay   = 2;
routing_delay  = 0;
vc_alloc_delay = 1;
sw_alloc_delay = 1;

input_speedup     = 2;
output_speedup    = 1;
internal_speedup  = 1.0;


// Traffic
traffic = transpose;
packet_size = 20;


// Simulation
sim_type = latency;

injection_rate = .0180;


END Configuration File: ../../IL2236_project/verify/figure2/ROMM/mesh88_lat
Class 0:
Packet latency average = 139.103
	minimum = 25
	maximum = 679
Network latency average = 113.537
	minimum = 25
	maximum = 492
Slowest packet = 125
Flit latency average = 69.8423
	minimum = 6
	maximum = 486
Slowest flit = 10443
Fragmentation average = 41.2926
	minimum = 0
	maximum = 226
Injected packet rate average = 0.01625
	minimum = 0.008 (at node 12)
	maximum = 0.024 (at node 16)
Accepted packet rate average = 0.0139375
	minimum = 0.006 (at node 33)
	maximum = 0.024 (at node 62)
Injected flit rate average = 0.318906
	minimum = 0.158 (at node 12)
	maximum = 0.48 (at node 55)
Accepted flit rate average= 0.288187
	minimum = 0.129 (at node 33)
	maximum = 0.48 (at node 62)
Injected packet length average = 19.625
Accepted packet length average = 20.6771
Total in-flight flits = 2356 (0 measured)
latency change    = 1
throughput change = 1
Class 0:
Packet latency average = 206.977
	minimum = 25
	maximum = 1209
Network latency average = 135.687
	minimum = 25
	maximum = 635
Slowest packet = 125
Flit latency average = 86.3135
	minimum = 6
	maximum = 616
Slowest flit = 19019
Fragmentation average = 46.2514
	minimum = 0
	maximum = 282
Injected packet rate average = 0.0154531
	minimum = 0.0095 (at node 33)
	maximum = 0.024 (at node 38)
Accepted packet rate average = 0.0142969
	minimum = 0.007 (at node 12)
	maximum = 0.0225 (at node 52)
Injected flit rate average = 0.306523
	minimum = 0.1845 (at node 33)
	maximum = 0.474 (at node 38)
Accepted flit rate average= 0.290977
	minimum = 0.1475 (at node 12)
	maximum = 0.462 (at node 52)
Injected packet length average = 19.8357
Accepted packet length average = 20.3525
Total in-flight flits = 2315 (0 measured)
latency change    = 0.327928
throughput change = 0.00958518
Class 0:
Packet latency average = 422.337
	minimum = 25
	maximum = 1911
Network latency average = 163.117
	minimum = 25
	maximum = 715
Slowest packet = 1874
Flit latency average = 107.36
	minimum = 6
	maximum = 663
Slowest flit = 33547
Fragmentation average = 52.0051
	minimum = 0
	maximum = 252
Injected packet rate average = 0.0154375
	minimum = 0.006 (at node 4)
	maximum = 0.029 (at node 47)
Accepted packet rate average = 0.0152969
	minimum = 0.006 (at node 32)
	maximum = 0.027 (at node 2)
Injected flit rate average = 0.307531
	minimum = 0.116 (at node 4)
	maximum = 0.567 (at node 16)
Accepted flit rate average= 0.309141
	minimum = 0.121 (at node 32)
	maximum = 0.572 (at node 2)
Injected packet length average = 19.9211
Accepted packet length average = 20.2094
Total in-flight flits = 2290 (0 measured)
latency change    = 0.509926
throughput change = 0.0587566
Average latency for class 0 exceeded 500 cycles. Aborting simulation.
Too many sample periods needed to converge
Simulation unstable, ending ...
Total run time 2.09124
