BEGIN Configuration File: ../../IL2236_project/verify/figure2/ROMM/mesh88_lat
// $Id$

// Copyright (c) 2007-2015, Trustees of The Leland Stanford Junior University
// All rights reserved.
//
// Redistribution and use in source and binary forms, with or without
// modification, are permitted provided that the following conditions are met:
//
// Redistributions of source code must retain the above copyright notice, this
// list of conditions and the following disclaimer.
// Redistributions in binary form must reproduce the above copyright notice,
// this list of conditions and the following disclaimer in the documentation
// and/or other materials provided with the distribution.
//
// THIS SOFTWARE IS PROVIDED BY THE COPYRIGHT HOLDERS AND CONTRIBUTORS "AS IS"
// AND ANY EXPRESS OR IMPLIED WARRANTIES, INCLUDING, BUT NOT LIMITED TO, THE
// IMPLIED WARRANTIES OF MERCHANTABILITY AND FITNESS FOR A PARTICULAR PURPOSE
// ARE DISCLAIMED. IN NO EVENT SHALL THE COPYRIGHT OWNER OR CONTRIBUTORS BE
// LIABLE FOR ANY DIRECT, INDIRECT, INCIDENTAL, SPECIAL, EXEMPLARY, OR
// CONSEQUENTIAL DAMAGES (INCLUDING, BUT NOT LIMITED TO, PROCUREMENT OF
// SUBSTITUTE GOODS OR SERVICES; LOSS OF USE, DATA, OR PROFITS; OR BUSINESS
// INTERRUPTION) HOWEVER CAUSED AND ON ANY THEORY OF LIABILITY, WHETHER IN
// CONTRACT, STRICT LIABILITY, OR TORT (INCLUDING NEGLIGENCE OR OTHERWISE)
// ARISING IN ANY WAY OUT OF THE USE OF THIS SOFTWARE, EVEN IF ADVISED OF THE
// POSSIBILITY OF SUCH DAMAGE.

//8X8 mesh with 20 flits per packet under injection mode
//injection rate here is packet per cycle, NOT flit per cycle

// Topology

topology = mesh;
k = 8;
n = 2;

// Routing
routing_function = romm;

// Flow control
num_vcs     = 8;
vc_buf_size = 8;
wait_for_tail_credit = 1;

// Router architecture
vc_allocator = islip;
sw_allocator = islip;
alloc_iters  = 1;

credit_delay   = 2;
routing_delay  = 0;
vc_alloc_delay = 1;
sw_alloc_delay = 1;

input_speedup     = 2;
output_speedup    = 1;
internal_speedup  = 1.0;


// Traffic
traffic = transpose;
packet_size = 20;


// Simulation
sim_type = latency;

injection_rate = .0200;


END Configuration File: ../../IL2236_project/verify/figure2/ROMM/mesh88_lat
Class 0:
Packet latency average = 156.208
	minimum = 25
	maximum = 647
Network latency average = 123.141
	minimum = 25
	maximum = 501
Slowest packet = 83
Flit latency average = 77.2861
	minimum = 6
	maximum = 583
Slowest flit = 9343
Fragmentation average = 46.9969
	minimum = 0
	maximum = 363
Injected packet rate average = 0.0176094
	minimum = 0.01 (at node 3)
	maximum = 0.03 (at node 63)
Accepted packet rate average = 0.0148906
	minimum = 0.007 (at node 39)
	maximum = 0.03 (at node 63)
Injected flit rate average = 0.345844
	minimum = 0.196 (at node 3)
	maximum = 0.6 (at node 63)
Accepted flit rate average= 0.310453
	minimum = 0.16 (at node 24)
	maximum = 0.6 (at node 63)
Injected packet length average = 19.6398
Accepted packet length average = 20.8489
Total in-flight flits = 2671 (0 measured)
latency change    = 1
throughput change = 1
Class 0:
Packet latency average = 241.956
	minimum = 25
	maximum = 1193
Network latency average = 147.563
	minimum = 25
	maximum = 777
Slowest packet = 83
Flit latency average = 94.9434
	minimum = 6
	maximum = 753
Slowest flit = 17883
Fragmentation average = 50.8957
	minimum = 0
	maximum = 363
Injected packet rate average = 0.0167969
	minimum = 0.01 (at node 50)
	maximum = 0.03 (at node 63)
Accepted packet rate average = 0.0154375
	minimum = 0.0095 (at node 22)
	maximum = 0.0295 (at node 63)
Injected flit rate average = 0.332937
	minimum = 0.198 (at node 50)
	maximum = 0.593 (at node 63)
Accepted flit rate average= 0.315125
	minimum = 0.19 (at node 22)
	maximum = 0.59 (at node 63)
Injected packet length average = 19.8214
Accepted packet length average = 20.413
Total in-flight flits = 2664 (0 measured)
latency change    = 0.354397
throughput change = 0.0148255
Class 0:
Packet latency average = 440.035
	minimum = 25
	maximum = 1786
Network latency average = 155.509
	minimum = 25
	maximum = 1124
Slowest packet = 1900
Flit latency average = 102.765
	minimum = 6
	maximum = 1078
Slowest flit = 37434
Fragmentation average = 50.6115
	minimum = 0
	maximum = 265
Injected packet rate average = 0.0165313
	minimum = 0.005 (at node 6)
	maximum = 0.028 (at node 55)
Accepted packet rate average = 0.0165313
	minimum = 0.005 (at node 41)
	maximum = 0.029 (at node 36)
Injected flit rate average = 0.331219
	minimum = 0.108 (at node 6)
	maximum = 0.56 (at node 55)
Accepted flit rate average= 0.33025
	minimum = 0.103 (at node 48)
	maximum = 0.57 (at node 62)
Injected packet length average = 20.0359
Accepted packet length average = 19.9773
Total in-flight flits = 2688 (0 measured)
latency change    = 0.450143
throughput change = 0.0457986
Average latency for class 0 exceeded 500 cycles. Aborting simulation.
Too many sample periods needed to converge
Simulation unstable, ending ...
Total run time 2.27227
