BEGIN Configuration File: ../../IL2236_project/verify/figure2/MAD/mesh88_lat
// $Id$

// Copyright (c) 2007-2015, Trustees of The Leland Stanford Junior University
// All rights reserved.
//
// Redistribution and use in source and binary forms, with or without
// modification, are permitted provided that the following conditions are met:
//
// Redistributions of source code must retain the above copyright notice, this
// list of conditions and the following disclaimer.
// Redistributions in binary form must reproduce the above copyright notice,
// this list of conditions and the following disclaimer in the documentation
// and/or other materials provided with the distribution.
//
// THIS SOFTWARE IS PROVIDED BY THE COPYRIGHT HOLDERS AND CONTRIBUTORS "AS IS"
// AND ANY EXPRESS OR IMPLIED WARRANTIES, INCLUDING, BUT NOT LIMITED TO, THE
// IMPLIED WARRANTIES OF MERCHANTABILITY AND FITNESS FOR A PARTICULAR PURPOSE
// ARE DISCLAIMED. IN NO EVENT SHALL THE COPYRIGHT OWNER OR CONTRIBUTORS BE
// LIABLE FOR ANY DIRECT, INDIRECT, INCIDENTAL, SPECIAL, EXEMPLARY, OR
// CONSEQUENTIAL DAMAGES (INCLUDING, BUT NOT LIMITED TO, PROCUREMENT OF
// SUBSTITUTE GOODS OR SERVICES; LOSS OF USE, DATA, OR PROFITS; OR BUSINESS
// INTERRUPTION) HOWEVER CAUSED AND ON ANY THEORY OF LIABILITY, WHETHER IN
// CONTRACT, STRICT LIABILITY, OR TORT (INCLUDING NEGLIGENCE OR OTHERWISE)
// ARISING IN ANY WAY OUT OF THE USE OF THIS SOFTWARE, EVEN IF ADVISED OF THE
// POSSIBILITY OF SUCH DAMAGE.

//8X8 mesh with 20 flits per packet under injection mode
//injection rate here is packet per cycle, NOT flit per cycle

// Topology

topology = mesh;
k = 8;
n = 2;

// Routing
routing_function = min_adapt;

// Flow control
num_vcs     = 8;
vc_buf_size = 8;
wait_for_tail_credit = 1;

// Router architecture
vc_allocator = islip;
sw_allocator = islip;
alloc_iters  = 1;

credit_delay   = 2;
routing_delay  = 0;
vc_alloc_delay = 1;
sw_alloc_delay = 1;

input_speedup     = 2;
output_speedup    = 1;
internal_speedup  = 1.0;


// Traffic
traffic = transpose;
packet_size = 20;


// Simulation
sim_type = latency;

injection_rate = .0030;


END Configuration File: ../../IL2236_project/verify/figure2/MAD/mesh88_lat
Class 0:
Packet latency average = 49.0345
	minimum = 25
	maximum = 146
Network latency average = 48.3621
	minimum = 25
	maximum = 146
Slowest packet = 69
Flit latency average = 26.4342
	minimum = 6
	maximum = 127
Slowest flit = 1399
Fragmentation average = 4.77011
	minimum = 0
	maximum = 65
Injected packet rate average = 0.0028125
	minimum = 0 (at node 7)
	maximum = 0.009 (at node 62)
Accepted packet rate average = 0.00271875
	minimum = 0 (at node 6)
	maximum = 0.009 (at node 55)
Injected flit rate average = 0.0555937
	minimum = 0 (at node 7)
	maximum = 0.18 (at node 62)
Accepted flit rate average= 0.0544844
	minimum = 0 (at node 6)
	maximum = 0.18 (at node 55)
Injected packet length average = 19.7667
Accepted packet length average = 20.0402
Total in-flight flits = 113 (0 measured)
latency change    = 1
throughput change = 1
Class 0:
Packet latency average = 49.8842
	minimum = 25
	maximum = 146
Network latency average = 49.1525
	minimum = 25
	maximum = 146
Slowest packet = 69
Flit latency average = 28.1954
	minimum = 6
	maximum = 127
Slowest flit = 1399
Fragmentation average = 3.0678
	minimum = 0
	maximum = 65
Injected packet rate average = 0.00285937
	minimum = 0.0005 (at node 31)
	maximum = 0.0065 (at node 62)
Accepted packet rate average = 0.00276562
	minimum = 0.0005 (at node 59)
	maximum = 0.0065 (at node 55)
Injected flit rate average = 0.0568125
	minimum = 0.01 (at node 31)
	maximum = 0.13 (at node 62)
Accepted flit rate average= 0.0557031
	minimum = 0.01 (at node 59)
	maximum = 0.13 (at node 55)
Injected packet length average = 19.8689
Accepted packet length average = 20.1412
Total in-flight flits = 190 (0 measured)
latency change    = 0.0170334
throughput change = 0.0218794
Class 0:
Packet latency average = 53.4175
	minimum = 25
	maximum = 99
Network latency average = 52.1649
	minimum = 25
	maximum = 98
Slowest packet = 467
Flit latency average = 31.5292
	minimum = 6
	maximum = 78
Slowest flit = 7919
Fragmentation average = 2.94845
	minimum = 0
	maximum = 28
Injected packet rate average = 0.00301563
	minimum = 0 (at node 3)
	maximum = 0.009 (at node 45)
Accepted packet rate average = 0.00303125
	minimum = 0 (at node 28)
	maximum = 0.009 (at node 45)
Injected flit rate average = 0.0609219
	minimum = 0 (at node 6)
	maximum = 0.18 (at node 45)
Accepted flit rate average= 0.0607656
	minimum = 0 (at node 28)
	maximum = 0.18 (at node 45)
Injected packet length average = 20.2021
Accepted packet length average = 20.0464
Total in-flight flits = 161 (0 measured)
latency change    = 0.0661458
throughput change = 0.0833119
Warmed up ...Time used is 3000 cycles
Class 0:
Packet latency average = 49.5419
	minimum = 25
	maximum = 151
Network latency average = 49.257
	minimum = 25
	maximum = 151
Slowest packet = 591
Flit latency average = 28.918
	minimum = 6
	maximum = 132
Slowest flit = 11820
Fragmentation average = 3.3352
	minimum = 0
	maximum = 26
Injected packet rate average = 0.00298438
	minimum = 0 (at node 24)
	maximum = 0.008 (at node 43)
Accepted packet rate average = 0.00296875
	minimum = 0 (at node 3)
	maximum = 0.007 (at node 17)
Injected flit rate average = 0.0595
	minimum = 0 (at node 24)
	maximum = 0.157 (at node 43)
Accepted flit rate average= 0.0598281
	minimum = 0 (at node 3)
	maximum = 0.141 (at node 29)
Injected packet length average = 19.9372
Accepted packet length average = 20.1526
Total in-flight flits = 152 (152 measured)
latency change    = 0.0782293
throughput change = 0.0156699
Class 0:
Packet latency average = 50.312
	minimum = 25
	maximum = 151
Network latency average = 49.9184
	minimum = 25
	maximum = 151
Slowest packet = 591
Flit latency average = 29.2809
	minimum = 6
	maximum = 132
Slowest flit = 11820
Fragmentation average = 3.22741
	minimum = 0
	maximum = 35
Injected packet rate average = 0.00275781
	minimum = 0.0005 (at node 41)
	maximum = 0.0055 (at node 43)
Accepted packet rate average = 0.00276562
	minimum = 0.0005 (at node 13)
	maximum = 0.0055 (at node 29)
Injected flit rate average = 0.0548594
	minimum = 0.01 (at node 41)
	maximum = 0.11 (at node 43)
Accepted flit rate average= 0.0555156
	minimum = 0.01 (at node 13)
	maximum = 0.11 (at node 29)
Injected packet length average = 19.8924
Accepted packet length average = 20.0734
Total in-flight flits = 115 (115 measured)
latency change    = 0.0153056
throughput change = 0.0776808
Class 0:
Packet latency average = 51.9103
	minimum = 25
	maximum = 151
Network latency average = 51.1701
	minimum = 25
	maximum = 151
Slowest packet = 591
Flit latency average = 29.7667
	minimum = 6
	maximum = 132
Slowest flit = 11820
Fragmentation average = 4.4243
	minimum = 0
	maximum = 50
Injected packet rate average = 0.0028125
	minimum = 0.00133333 (at node 40)
	maximum = 0.00566667 (at node 43)
Accepted packet rate average = 0.00284375
	minimum = 0.00133333 (at node 5)
	maximum = 0.00566667 (at node 29)
Injected flit rate average = 0.0562604
	minimum = 0.0266667 (at node 40)
	maximum = 0.113333 (at node 43)
Accepted flit rate average= 0.0565937
	minimum = 0.0266667 (at node 5)
	maximum = 0.113333 (at node 29)
Injected packet length average = 20.0037
Accepted packet length average = 19.9011
Total in-flight flits = 95 (95 measured)
latency change    = 0.0307902
throughput change = 0.0190502
Class 0:
Packet latency average = 52.3342
	minimum = 25
	maximum = 185
Network latency average = 51.6726
	minimum = 25
	maximum = 185
Slowest packet = 1263
Flit latency average = 30.1134
	minimum = 6
	maximum = 166
Slowest flit = 25279
Fragmentation average = 4.79452
	minimum = 0
	maximum = 111
Injected packet rate average = 0.00289844
	minimum = 0.00125 (at node 58)
	maximum = 0.005 (at node 1)
Accepted packet rate average = 0.00289453
	minimum = 0.00125 (at node 23)
	maximum = 0.005 (at node 31)
Injected flit rate average = 0.0578437
	minimum = 0.025 (at node 58)
	maximum = 0.1 (at node 30)
Accepted flit rate average= 0.0579023
	minimum = 0.025 (at node 23)
	maximum = 0.1 (at node 31)
Injected packet length average = 19.9569
Accepted packet length average = 20.004
Total in-flight flits = 178 (178 measured)
latency change    = 0.00810112
throughput change = 0.0226
Class 0:
Packet latency average = 52.6414
	minimum = 25
	maximum = 231
Network latency average = 51.9697
	minimum = 25
	maximum = 231
Slowest packet = 1272
Flit latency average = 30.1485
	minimum = 6
	maximum = 212
Slowest flit = 25458
Fragmentation average = 5.02167
	minimum = 0
	maximum = 122
Injected packet rate average = 0.00291562
	minimum = 0.0012 (at node 57)
	maximum = 0.0048 (at node 30)
Accepted packet rate average = 0.00291875
	minimum = 0.0014 (at node 15)
	maximum = 0.0048 (at node 51)
Injected flit rate average = 0.0582875
	minimum = 0.024 (at node 57)
	maximum = 0.096 (at node 30)
Accepted flit rate average= 0.0583594
	minimum = 0.028 (at node 15)
	maximum = 0.096 (at node 51)
Injected packet length average = 19.9914
Accepted packet length average = 19.9946
Total in-flight flits = 146 (146 measured)
latency change    = 0.00583458
throughput change = 0.00783133
Draining all recorded packets ...
Draining remaining packets ...
Time taken is 8160 cycles
====== Overall Traffic Statistics ======
====== Traffic class 0 ======
Packet latency average = 52.836 (1 samples)
	minimum = 25 (1 samples)
	maximum = 231 (1 samples)
Network latency average = 52.1522 (1 samples)
	minimum = 25 (1 samples)
	maximum = 231 (1 samples)
Flit latency average = 30.2569 (1 samples)
	minimum = 6 (1 samples)
	maximum = 212 (1 samples)
Fragmentation average = 5.14469 (1 samples)
	minimum = 0 (1 samples)
	maximum = 122 (1 samples)
Injected packet rate average = 0.00291562 (1 samples)
	minimum = 0.0012 (1 samples)
	maximum = 0.0048 (1 samples)
Accepted packet rate average = 0.00291875 (1 samples)
	minimum = 0.0014 (1 samples)
	maximum = 0.0048 (1 samples)
Injected flit rate average = 0.0582875 (1 samples)
	minimum = 0.024 (1 samples)
	maximum = 0.096 (1 samples)
Accepted flit rate average = 0.0583594 (1 samples)
	minimum = 0.028 (1 samples)
	maximum = 0.096 (1 samples)
Injected packet size average = 19.9914 (1 samples)
Accepted packet size average = 19.9946 (1 samples)
Hops average = 6.17685 (1 samples)
Total run time 1.52054
