BEGIN Configuration File: ../../IL2236_project/verify/figure2/MAD/mesh88_lat
// $Id$

// Copyright (c) 2007-2015, Trustees of The Leland Stanford Junior University
// All rights reserved.
//
// Redistribution and use in source and binary forms, with or without
// modification, are permitted provided that the following conditions are met:
//
// Redistributions of source code must retain the above copyright notice, this
// list of conditions and the following disclaimer.
// Redistributions in binary form must reproduce the above copyright notice,
// this list of conditions and the following disclaimer in the documentation
// and/or other materials provided with the distribution.
//
// THIS SOFTWARE IS PROVIDED BY THE COPYRIGHT HOLDERS AND CONTRIBUTORS "AS IS"
// AND ANY EXPRESS OR IMPLIED WARRANTIES, INCLUDING, BUT NOT LIMITED TO, THE
// IMPLIED WARRANTIES OF MERCHANTABILITY AND FITNESS FOR A PARTICULAR PURPOSE
// ARE DISCLAIMED. IN NO EVENT SHALL THE COPYRIGHT OWNER OR CONTRIBUTORS BE
// LIABLE FOR ANY DIRECT, INDIRECT, INCIDENTAL, SPECIAL, EXEMPLARY, OR
// CONSEQUENTIAL DAMAGES (INCLUDING, BUT NOT LIMITED TO, PROCUREMENT OF
// SUBSTITUTE GOODS OR SERVICES; LOSS OF USE, DATA, OR PROFITS; OR BUSINESS
// INTERRUPTION) HOWEVER CAUSED AND ON ANY THEORY OF LIABILITY, WHETHER IN
// CONTRACT, STRICT LIABILITY, OR TORT (INCLUDING NEGLIGENCE OR OTHERWISE)
// ARISING IN ANY WAY OUT OF THE USE OF THIS SOFTWARE, EVEN IF ADVISED OF THE
// POSSIBILITY OF SUCH DAMAGE.

//8X8 mesh with 20 flits per packet under injection mode
//injection rate here is packet per cycle, NOT flit per cycle

// Topology

topology = mesh;
k = 8;
n = 2;

// Routing
routing_function = min_adapt;

// Flow control
num_vcs     = 8;
vc_buf_size = 8;
wait_for_tail_credit = 1;

// Router architecture
vc_allocator = islip;
sw_allocator = islip;
alloc_iters  = 1;

credit_delay   = 2;
routing_delay  = 0;
vc_alloc_delay = 1;
sw_alloc_delay = 1;

input_speedup     = 2;
output_speedup    = 1;
internal_speedup  = 1.0;


// Traffic
traffic = transpose;
packet_size = 20;


// Simulation
sim_type = latency;

injection_rate = .0060;


END Configuration File: ../../IL2236_project/verify/figure2/MAD/mesh88_lat
Class 0:
Packet latency average = 75.7456
	minimum = 25
	maximum = 803
Network latency average = 72.9882
	minimum = 25
	maximum = 803
Slowest packet = 22
Flit latency average = 43.6695
	minimum = 6
	maximum = 781
Slowest flit = 455
Fragmentation average = 19.2988
	minimum = 0
	maximum = 147
Injected packet rate average = 0.00567187
	minimum = 0.001 (at node 30)
	maximum = 0.01 (at node 0)
Accepted packet rate average = 0.00528125
	minimum = 0.001 (at node 15)
	maximum = 0.01 (at node 0)
Injected flit rate average = 0.112078
	minimum = 0.02 (at node 30)
	maximum = 0.2 (at node 0)
Accepted flit rate average= 0.107547
	minimum = 0.02 (at node 15)
	maximum = 0.2 (at node 0)
Injected packet length average = 19.7603
Accepted packet length average = 20.3639
Total in-flight flits = 377 (0 measured)
latency change    = 1
throughput change = 1
Class 0:
Packet latency average = 79.7655
	minimum = 25
	maximum = 1118
Network latency average = 77.2863
	minimum = 25
	maximum = 1118
Slowest packet = 44
Flit latency average = 46.3903
	minimum = 6
	maximum = 1087
Slowest flit = 895
Fragmentation average = 21.4187
	minimum = 0
	maximum = 167
Injected packet rate average = 0.00578125
	minimum = 0.002 (at node 51)
	maximum = 0.0105 (at node 44)
Accepted packet rate average = 0.00542969
	minimum = 0.0015 (at node 30)
	maximum = 0.0095 (at node 37)
Injected flit rate average = 0.11443
	minimum = 0.04 (at node 51)
	maximum = 0.201 (at node 44)
Accepted flit rate average= 0.111023
	minimum = 0.033 (at node 30)
	maximum = 0.198 (at node 37)
Injected packet length average = 19.7932
Accepted packet length average = 20.4475
Total in-flight flits = 589 (0 measured)
latency change    = 0.0503966
throughput change = 0.0313138
Class 0:
Packet latency average = 103.674
	minimum = 25
	maximum = 1080
Network latency average = 92.1964
	minimum = 25
	maximum = 1043
Slowest packet = 559
Flit latency average = 52.4962
	minimum = 6
	maximum = 952
Slowest flit = 11195
Fragmentation average = 35.4961
	minimum = 0
	maximum = 181
Injected packet rate average = 0.00595313
	minimum = 0.001 (at node 0)
	maximum = 0.011 (at node 7)
Accepted packet rate average = 0.00604688
	minimum = 0.001 (at node 0)
	maximum = 0.011 (at node 45)
Injected flit rate average = 0.119578
	minimum = 0.02 (at node 0)
	maximum = 0.224 (at node 60)
Accepted flit rate average= 0.118969
	minimum = 0.02 (at node 0)
	maximum = 0.22 (at node 45)
Injected packet length average = 20.0866
Accepted packet length average = 19.6744
Total in-flight flits = 595 (0 measured)
latency change    = 0.230616
throughput change = 0.0667849
Warmed up ...Time used is 3000 cycles
Class 0:
Packet latency average = 80.5977
	minimum = 25
	maximum = 543
Network latency average = 78.2187
	minimum = 25
	maximum = 543
Slowest packet = 1122
Flit latency average = 57.6569
	minimum = 6
	maximum = 1873
Slowest flit = 10392
Fragmentation average = 22.9009
	minimum = 0
	maximum = 149
Injected packet rate average = 0.00571875
	minimum = 0 (at node 6)
	maximum = 0.01 (at node 22)
Accepted packet rate average = 0.00596875
	minimum = 0.001 (at node 5)
	maximum = 0.011 (at node 50)
Injected flit rate average = 0.114719
	minimum = 0.012 (at node 6)
	maximum = 0.206 (at node 22)
Accepted flit rate average= 0.118172
	minimum = 0.02 (at node 5)
	maximum = 0.22 (at node 50)
Injected packet length average = 20.0601
Accepted packet length average = 19.7984
Total in-flight flits = 352 (352 measured)
latency change    = 0.28632
throughput change = 0.00674336
Class 0:
Packet latency average = 79.5251
	minimum = 25
	maximum = 543
Network latency average = 76.825
	minimum = 25
	maximum = 543
Slowest packet = 1122
Flit latency average = 51.4434
	minimum = 6
	maximum = 1873
Slowest flit = 10392
Fragmentation average = 21.6887
	minimum = 0
	maximum = 149
Injected packet rate average = 0.00561719
	minimum = 0.0025 (at node 6)
	maximum = 0.0085 (at node 0)
Accepted packet rate average = 0.00575
	minimum = 0.0035 (at node 5)
	maximum = 0.0095 (at node 56)
Injected flit rate average = 0.112625
	minimum = 0.056 (at node 6)
	maximum = 0.173 (at node 22)
Accepted flit rate average= 0.114445
	minimum = 0.068 (at node 9)
	maximum = 0.187 (at node 56)
Injected packet length average = 20.0501
Accepted packet length average = 19.9035
Total in-flight flits = 326 (326 measured)
latency change    = 0.0134871
throughput change = 0.0325619
Class 0:
Packet latency average = 78.0803
	minimum = 25
	maximum = 543
Network latency average = 75.7665
	minimum = 25
	maximum = 543
Slowest packet = 1122
Flit latency average = 48.5831
	minimum = 6
	maximum = 1873
Slowest flit = 10392
Fragmentation average = 21.4612
	minimum = 0
	maximum = 149
Injected packet rate average = 0.00561458
	minimum = 0.00333333 (at node 6)
	maximum = 0.00833333 (at node 22)
Accepted packet rate average = 0.00571354
	minimum = 0.00366667 (at node 27)
	maximum = 0.00866667 (at node 50)
Injected flit rate average = 0.112464
	minimum = 0.0706667 (at node 6)
	maximum = 0.168667 (at node 22)
Accepted flit rate average= 0.113937
	minimum = 0.0733333 (at node 27)
	maximum = 0.173333 (at node 50)
Injected packet length average = 20.0306
Accepted packet length average = 19.9417
Total in-flight flits = 279 (279 measured)
latency change    = 0.0185036
throughput change = 0.00445694
Class 0:
Packet latency average = 78.6267
	minimum = 25
	maximum = 543
Network latency average = 76.5548
	minimum = 25
	maximum = 543
Slowest packet = 1122
Flit latency average = 48.0053
	minimum = 6
	maximum = 1873
Slowest flit = 10392
Fragmentation average = 22.5094
	minimum = 0
	maximum = 149
Injected packet rate average = 0.00573047
	minimum = 0.00325 (at node 27)
	maximum = 0.00825 (at node 41)
Accepted packet rate average = 0.00575
	minimum = 0.00325 (at node 27)
	maximum = 0.008 (at node 13)
Injected flit rate average = 0.114566
	minimum = 0.065 (at node 27)
	maximum = 0.165 (at node 41)
Accepted flit rate average= 0.114977
	minimum = 0.065 (at node 27)
	maximum = 0.16475 (at node 13)
Injected packet length average = 19.9925
Accepted packet length average = 19.9959
Total in-flight flits = 501 (501 measured)
latency change    = 0.00694824
throughput change = 0.00903717
Draining all recorded packets ...
Draining remaining packets ...
Time taken is 7359 cycles
====== Overall Traffic Statistics ======
====== Traffic class 0 ======
Packet latency average = 80.3676 (1 samples)
	minimum = 25 (1 samples)
	maximum = 543 (1 samples)
Network latency average = 78.2267 (1 samples)
	minimum = 25 (1 samples)
	maximum = 543 (1 samples)
Flit latency average = 48.9747 (1 samples)
	minimum = 6 (1 samples)
	maximum = 1873 (1 samples)
Fragmentation average = 23.3281 (1 samples)
	minimum = 0 (1 samples)
	maximum = 156 (1 samples)
Injected packet rate average = 0.00573047 (1 samples)
	minimum = 0.00325 (1 samples)
	maximum = 0.00825 (1 samples)
Accepted packet rate average = 0.00575 (1 samples)
	minimum = 0.00325 (1 samples)
	maximum = 0.008 (1 samples)
Injected flit rate average = 0.114566 (1 samples)
	minimum = 0.065 (1 samples)
	maximum = 0.165 (1 samples)
Accepted flit rate average = 0.114977 (1 samples)
	minimum = 0.065 (1 samples)
	maximum = 0.16475 (1 samples)
Injected packet size average = 19.9925 (1 samples)
Accepted packet size average = 19.9959 (1 samples)
Hops average = 6.37236 (1 samples)
Total run time 2.41138
