BEGIN Configuration File: ../../IL2236_project/verify/figure2/MAD/mesh88_lat
// $Id$

// Copyright (c) 2007-2015, Trustees of The Leland Stanford Junior University
// All rights reserved.
//
// Redistribution and use in source and binary forms, with or without
// modification, are permitted provided that the following conditions are met:
//
// Redistributions of source code must retain the above copyright notice, this
// list of conditions and the following disclaimer.
// Redistributions in binary form must reproduce the above copyright notice,
// this list of conditions and the following disclaimer in the documentation
// and/or other materials provided with the distribution.
//
// THIS SOFTWARE IS PROVIDED BY THE COPYRIGHT HOLDERS AND CONTRIBUTORS "AS IS"
// AND ANY EXPRESS OR IMPLIED WARRANTIES, INCLUDING, BUT NOT LIMITED TO, THE
// IMPLIED WARRANTIES OF MERCHANTABILITY AND FITNESS FOR A PARTICULAR PURPOSE
// ARE DISCLAIMED. IN NO EVENT SHALL THE COPYRIGHT OWNER OR CONTRIBUTORS BE
// LIABLE FOR ANY DIRECT, INDIRECT, INCIDENTAL, SPECIAL, EXEMPLARY, OR
// CONSEQUENTIAL DAMAGES (INCLUDING, BUT NOT LIMITED TO, PROCUREMENT OF
// SUBSTITUTE GOODS OR SERVICES; LOSS OF USE, DATA, OR PROFITS; OR BUSINESS
// INTERRUPTION) HOWEVER CAUSED AND ON ANY THEORY OF LIABILITY, WHETHER IN
// CONTRACT, STRICT LIABILITY, OR TORT (INCLUDING NEGLIGENCE OR OTHERWISE)
// ARISING IN ANY WAY OUT OF THE USE OF THIS SOFTWARE, EVEN IF ADVISED OF THE
// POSSIBILITY OF SUCH DAMAGE.

//8X8 mesh with 20 flits per packet under injection mode
//injection rate here is packet per cycle, NOT flit per cycle

// Topology

topology = mesh;
k = 8;
n = 2;

// Routing
routing_function = min_adapt;

// Flow control
num_vcs     = 8;
vc_buf_size = 8;
wait_for_tail_credit = 1;

// Router architecture
vc_allocator = islip;
sw_allocator = islip;
alloc_iters  = 1;

credit_delay   = 2;
routing_delay  = 0;
vc_alloc_delay = 1;
sw_alloc_delay = 1;

input_speedup     = 2;
output_speedup    = 1;
internal_speedup  = 1.0;


// Traffic
traffic = transpose;
packet_size = 20;


// Simulation
sim_type = latency;

injection_rate = .0070;


END Configuration File: ../../IL2236_project/verify/figure2/MAD/mesh88_lat
Class 0:
Packet latency average = 78.5703
	minimum = 25
	maximum = 295
Network latency average = 75.4531
	minimum = 25
	maximum = 295
Slowest packet = 259
Flit latency average = 44.4523
	minimum = 6
	maximum = 374
Slowest flit = 5055
Fragmentation average = 23.3073
	minimum = 0
	maximum = 158
Injected packet rate average = 0.006625
	minimum = 0.002 (at node 9)
	maximum = 0.013 (at node 35)
Accepted packet rate average = 0.006
	minimum = 0.001 (at node 7)
	maximum = 0.012 (at node 54)
Injected flit rate average = 0.131219
	minimum = 0.04 (at node 9)
	maximum = 0.244 (at node 35)
Accepted flit rate average= 0.123594
	minimum = 0.034 (at node 7)
	maximum = 0.24 (at node 54)
Injected packet length average = 19.8066
Accepted packet length average = 20.599
Total in-flight flits = 570 (0 measured)
latency change    = 1
throughput change = 1
Class 0:
Packet latency average = 95.6132
	minimum = 25
	maximum = 721
Network latency average = 90.852
	minimum = 25
	maximum = 721
Slowest packet = 359
Flit latency average = 53.9656
	minimum = 6
	maximum = 783
Slowest flit = 10089
Fragmentation average = 31.9552
	minimum = 0
	maximum = 183
Injected packet rate average = 0.00669531
	minimum = 0.003 (at node 0)
	maximum = 0.011 (at node 35)
Accepted packet rate average = 0.00628125
	minimum = 0.003 (at node 0)
	maximum = 0.01 (at node 28)
Injected flit rate average = 0.132531
	minimum = 0.06 (at node 0)
	maximum = 0.2165 (at node 35)
Accepted flit rate average= 0.127836
	minimum = 0.06 (at node 0)
	maximum = 0.2095 (at node 28)
Injected packet length average = 19.7946
Accepted packet length average = 20.352
Total in-flight flits = 777 (0 measured)
latency change    = 0.178248
throughput change = 0.0331846
Class 0:
Packet latency average = 122.047
	minimum = 25
	maximum = 1084
Network latency average = 112.54
	minimum = 25
	maximum = 930
Slowest packet = 733
Flit latency average = 68.2253
	minimum = 6
	maximum = 911
Slowest flit = 17419
Fragmentation average = 44.2735
	minimum = 0
	maximum = 167
Injected packet rate average = 0.00707813
	minimum = 0.002 (at node 56)
	maximum = 0.013 (at node 3)
Accepted packet rate average = 0.00696875
	minimum = 0.002 (at node 7)
	maximum = 0.013 (at node 35)
Injected flit rate average = 0.141828
	minimum = 0.04 (at node 56)
	maximum = 0.262 (at node 62)
Accepted flit rate average= 0.140563
	minimum = 0.051 (at node 42)
	maximum = 0.27 (at node 55)
Injected packet length average = 20.0375
Accepted packet length average = 20.1704
Total in-flight flits = 841 (0 measured)
latency change    = 0.216588
throughput change = 0.0905402
Warmed up ...Time used is 3000 cycles
Class 0:
Packet latency average = 122.127
	minimum = 25
	maximum = 997
Network latency average = 108.868
	minimum = 25
	maximum = 409
Slowest packet = 1313
Flit latency average = 84.2459
	minimum = 6
	maximum = 2600
Slowest flit = 4999
Fragmentation average = 46.601
	minimum = 0
	maximum = 180
Injected packet rate average = 0.00673437
	minimum = 0.002 (at node 42)
	maximum = 0.013 (at node 12)
Accepted packet rate average = 0.00696875
	minimum = 0.002 (at node 23)
	maximum = 0.013 (at node 24)
Injected flit rate average = 0.1355
	minimum = 0.057 (at node 42)
	maximum = 0.26 (at node 12)
Accepted flit rate average= 0.137547
	minimum = 0.043 (at node 23)
	maximum = 0.276 (at node 33)
Injected packet length average = 20.1206
Accepted packet length average = 19.7377
Total in-flight flits = 658 (658 measured)
latency change    = 0.000653892
throughput change = 0.0219243
Class 0:
Packet latency average = 114.295
	minimum = 25
	maximum = 1048
Network latency average = 106.238
	minimum = 25
	maximum = 1048
Slowest packet = 1715
Flit latency average = 74.2281
	minimum = 6
	maximum = 2600
Slowest flit = 4999
Fragmentation average = 41.4165
	minimum = 0
	maximum = 180
Injected packet rate average = 0.00673437
	minimum = 0.0025 (at node 8)
	maximum = 0.012 (at node 31)
Accepted packet rate average = 0.00692188
	minimum = 0.0025 (at node 28)
	maximum = 0.011 (at node 24)
Injected flit rate average = 0.135164
	minimum = 0.05 (at node 35)
	maximum = 0.24 (at node 31)
Accepted flit rate average= 0.137391
	minimum = 0.05 (at node 28)
	maximum = 0.2155 (at node 24)
Injected packet length average = 20.0708
Accepted packet length average = 19.8488
Total in-flight flits = 495 (495 measured)
latency change    = 0.0685202
throughput change = 0.00113727
Class 0:
Packet latency average = 104.942
	minimum = 25
	maximum = 1048
Network latency average = 98.8537
	minimum = 25
	maximum = 1048
Slowest packet = 1715
Flit latency average = 66.2497
	minimum = 6
	maximum = 2600
Slowest flit = 4999
Fragmentation average = 36.6779
	minimum = 0
	maximum = 180
Injected packet rate average = 0.00661979
	minimum = 0.003 (at node 35)
	maximum = 0.0106667 (at node 31)
Accepted packet rate average = 0.00682812
	minimum = 0.003 (at node 28)
	maximum = 0.0106667 (at node 59)
Injected flit rate average = 0.132703
	minimum = 0.06 (at node 35)
	maximum = 0.213333 (at node 31)
Accepted flit rate average= 0.135036
	minimum = 0.06 (at node 28)
	maximum = 0.213333 (at node 59)
Injected packet length average = 20.0464
Accepted packet length average = 19.7765
Total in-flight flits = 334 (334 measured)
latency change    = 0.0891246
throughput change = 0.0174336
Class 0:
Packet latency average = 98.7865
	minimum = 25
	maximum = 1048
Network latency average = 93.2255
	minimum = 25
	maximum = 1048
Slowest packet = 1715
Flit latency average = 60.8863
	minimum = 6
	maximum = 2600
Slowest flit = 4999
Fragmentation average = 33.5347
	minimum = 0
	maximum = 199
Injected packet rate average = 0.00672266
	minimum = 0.004 (at node 8)
	maximum = 0.01125 (at node 31)
Accepted packet rate average = 0.00676562
	minimum = 0.00375 (at node 23)
	maximum = 0.01125 (at node 59)
Injected flit rate average = 0.134437
	minimum = 0.084 (at node 8)
	maximum = 0.225 (at node 31)
Accepted flit rate average= 0.134555
	minimum = 0.07825 (at node 23)
	maximum = 0.225 (at node 59)
Injected packet length average = 19.9977
Accepted packet length average = 19.888
Total in-flight flits = 815 (815 measured)
latency change    = 0.0623158
throughput change = 0.00358048
Class 0:
Packet latency average = 107.013
	minimum = 25
	maximum = 1088
Network latency average = 100.599
	minimum = 25
	maximum = 1071
Slowest packet = 2998
Flit latency average = 64.8938
	minimum = 6
	maximum = 2600
Slowest flit = 4999
Fragmentation average = 36.7979
	minimum = 0
	maximum = 199
Injected packet rate average = 0.006725
	minimum = 0.0042 (at node 8)
	maximum = 0.0098 (at node 31)
Accepted packet rate average = 0.00672812
	minimum = 0.0044 (at node 1)
	maximum = 0.0098 (at node 59)
Injected flit rate average = 0.134625
	minimum = 0.0872 (at node 8)
	maximum = 0.196 (at node 31)
Accepted flit rate average= 0.134231
	minimum = 0.088 (at node 1)
	maximum = 0.196 (at node 59)
Injected packet length average = 20.0186
Accepted packet length average = 19.9508
Total in-flight flits = 927 (927 measured)
latency change    = 0.0768773
throughput change = 0.00240955
Class 0:
Packet latency average = 120.487
	minimum = 25
	maximum = 2200
Network latency average = 105.913
	minimum = 25
	maximum = 2200
Slowest packet = 2794
Flit latency average = 68.8582
	minimum = 6
	maximum = 2600
Slowest flit = 4999
Fragmentation average = 37.4133
	minimum = 0
	maximum = 199
Injected packet rate average = 0.00670833
	minimum = 0.0045 (at node 8)
	maximum = 0.009 (at node 10)
Accepted packet rate average = 0.00671615
	minimum = 0.0045 (at node 1)
	maximum = 0.009 (at node 4)
Injected flit rate average = 0.134263
	minimum = 0.0915 (at node 8)
	maximum = 0.18 (at node 10)
Accepted flit rate average= 0.134013
	minimum = 0.09 (at node 1)
	maximum = 0.18 (at node 4)
Injected packet length average = 20.0144
Accepted packet length average = 19.9539
Total in-flight flits = 900 (900 measured)
latency change    = 0.111824
throughput change = 0.00162842
Class 0:
Packet latency average = 125.293
	minimum = 25
	maximum = 2200
Network latency average = 108.097
	minimum = 25
	maximum = 2200
Slowest packet = 2794
Flit latency average = 70.0416
	minimum = 6
	maximum = 2600
Slowest flit = 4999
Fragmentation average = 37.7242
	minimum = 0
	maximum = 199
Injected packet rate average = 0.00674554
	minimum = 0.00428571 (at node 8)
	maximum = 0.009 (at node 32)
Accepted packet rate average = 0.00677009
	minimum = 0.00442857 (at node 1)
	maximum = 0.009 (at node 4)
Injected flit rate average = 0.135018
	minimum = 0.088 (at node 8)
	maximum = 0.18 (at node 32)
Accepted flit rate average= 0.135217
	minimum = 0.0885714 (at node 1)
	maximum = 0.181286 (at node 4)
Injected packet length average = 20.0159
Accepted packet length average = 19.9726
Total in-flight flits = 704 (704 measured)
latency change    = 0.0383628
throughput change = 0.00890052
Draining all recorded packets ...
Class 0:
Remaining flits: 58040 58041 58042 58043 58044 58045 58046 58047 58048 58049 [...] (955 flits)
Measured flits: 58040 58041 58042 58043 58044 58045 58046 58047 58048 58049 [...] (65 flits)
Class 0:
Remaining flits: 73160 73161 73162 73163 73164 73165 73166 73167 73168 73169 [...] (855 flits)
Measured flits: 73160 73161 73162 73163 73164 73165 73166 73167 73168 73169 [...] (20 flits)
Class 0:
Remaining flits: 73160 73161 73162 73163 73164 73165 73166 73167 73168 73169 [...] (891 flits)
Measured flits: 73160 73161 73162 73163 73164 73165 73166 73167 73168 73169 [...] (20 flits)
Class 0:
Remaining flits: 73160 73161 73162 73163 73164 73165 73166 73167 73168 73169 [...] (875 flits)
Measured flits: 73160 73161 73162 73163 73164 73165 73166 73167 73168 73169 [...] (20 flits)
Class 0:
Remaining flits: 73160 73161 73162 73163 73164 73165 73166 73167 73168 73169 [...] (593 flits)
Measured flits: 73160 73161 73162 73163 73164 73165 73166 73167 73168 73169 [...] (20 flits)
Class 0:
Remaining flits: 73160 73161 73162 73163 73164 73165 73166 73167 73168 73169 [...] (630 flits)
Measured flits: 73160 73161 73162 73163 73164 73165 73166 73167 73168 73169 [...] (20 flits)
Class 0:
Remaining flits: 73160 73161 73162 73163 73164 73165 73166 73167 73168 73169 [...] (582 flits)
Measured flits: 73160 73161 73162 73163 73164 73165 73166 73167 73168 73169 [...] (20 flits)
Class 0:
Remaining flits: 73160 73161 73162 73163 73164 73165 73166 73167 73168 73169 [...] (724 flits)
Measured flits: 73160 73161 73162 73163 73164 73165 73166 73167 73168 73169 [...] (20 flits)
Class 0:
Remaining flits: 73160 73161 73162 73163 73164 73165 73166 73167 73168 73169 [...] (878 flits)
Measured flits: 73160 73161 73162 73163 73164 73165 73166 73167 73168 73169 [...] (20 flits)
Class 0:
Remaining flits: 73160 73161 73162 73163 73164 73165 73166 73167 73168 73169 [...] (927 flits)
Measured flits: 73160 73161 73162 73163 73164 73165 73166 73167 73168 73169 [...] (20 flits)
Class 0:
Remaining flits: 73160 73161 73162 73163 73164 73165 73166 73167 73168 73169 [...] (832 flits)
Measured flits: 73160 73161 73162 73163 73164 73165 73166 73167 73168 73169 [...] (20 flits)
Class 0:
Remaining flits: 73160 73161 73162 73163 73164 73165 73166 73167 73168 73169 [...] (762 flits)
Measured flits: 73160 73161 73162 73163 73164 73165 73166 73167 73168 73169 [...] (20 flits)
Draining remaining packets ...
Time taken is 23337 cycles
====== Overall Traffic Statistics ======
====== Traffic class 0 ======
Packet latency average = 143.564 (1 samples)
	minimum = 25 (1 samples)
	maximum = 14521 (1 samples)
Network latency average = 119.023 (1 samples)
	minimum = 25 (1 samples)
	maximum = 14521 (1 samples)
Flit latency average = 76.0209 (1 samples)
	minimum = 6 (1 samples)
	maximum = 14485 (1 samples)
Fragmentation average = 38.5319 (1 samples)
	minimum = 0 (1 samples)
	maximum = 199 (1 samples)
Injected packet rate average = 0.00674554 (1 samples)
	minimum = 0.00428571 (1 samples)
	maximum = 0.009 (1 samples)
Accepted packet rate average = 0.00677009 (1 samples)
	minimum = 0.00442857 (1 samples)
	maximum = 0.009 (1 samples)
Injected flit rate average = 0.135018 (1 samples)
	minimum = 0.088 (1 samples)
	maximum = 0.18 (1 samples)
Accepted flit rate average = 0.135217 (1 samples)
	minimum = 0.0885714 (1 samples)
	maximum = 0.181286 (1 samples)
Injected packet size average = 20.0159 (1 samples)
Accepted packet size average = 19.9726 (1 samples)
Hops average = 6.40592 (1 samples)
Total run time 9.2641
