BEGIN Configuration File: ../../IL2236_project/verify/figure2/MAD/mesh88_lat
// $Id$

// Copyright (c) 2007-2015, Trustees of The Leland Stanford Junior University
// All rights reserved.
//
// Redistribution and use in source and binary forms, with or without
// modification, are permitted provided that the following conditions are met:
//
// Redistributions of source code must retain the above copyright notice, this
// list of conditions and the following disclaimer.
// Redistributions in binary form must reproduce the above copyright notice,
// this list of conditions and the following disclaimer in the documentation
// and/or other materials provided with the distribution.
//
// THIS SOFTWARE IS PROVIDED BY THE COPYRIGHT HOLDERS AND CONTRIBUTORS "AS IS"
// AND ANY EXPRESS OR IMPLIED WARRANTIES, INCLUDING, BUT NOT LIMITED TO, THE
// IMPLIED WARRANTIES OF MERCHANTABILITY AND FITNESS FOR A PARTICULAR PURPOSE
// ARE DISCLAIMED. IN NO EVENT SHALL THE COPYRIGHT OWNER OR CONTRIBUTORS BE
// LIABLE FOR ANY DIRECT, INDIRECT, INCIDENTAL, SPECIAL, EXEMPLARY, OR
// CONSEQUENTIAL DAMAGES (INCLUDING, BUT NOT LIMITED TO, PROCUREMENT OF
// SUBSTITUTE GOODS OR SERVICES; LOSS OF USE, DATA, OR PROFITS; OR BUSINESS
// INTERRUPTION) HOWEVER CAUSED AND ON ANY THEORY OF LIABILITY, WHETHER IN
// CONTRACT, STRICT LIABILITY, OR TORT (INCLUDING NEGLIGENCE OR OTHERWISE)
// ARISING IN ANY WAY OUT OF THE USE OF THIS SOFTWARE, EVEN IF ADVISED OF THE
// POSSIBILITY OF SUCH DAMAGE.

//8X8 mesh with 20 flits per packet under injection mode
//injection rate here is packet per cycle, NOT flit per cycle

// Topology

topology = mesh;
k = 8;
n = 2;

// Routing
routing_function = min_adapt;

// Flow control
num_vcs     = 8;
vc_buf_size = 8;
wait_for_tail_credit = 1;

// Router architecture
vc_allocator = islip;
sw_allocator = islip;
alloc_iters  = 1;

credit_delay   = 2;
routing_delay  = 0;
vc_alloc_delay = 1;
sw_alloc_delay = 1;

input_speedup     = 2;
output_speedup    = 1;
internal_speedup  = 1.0;


// Traffic
traffic = transpose;
packet_size = 20;


// Simulation
sim_type = latency;

injection_rate = .0085;


END Configuration File: ../../IL2236_project/verify/figure2/MAD/mesh88_lat
Class 0:
Packet latency average = 101.654
	minimum = 25
	maximum = 742
Network latency average = 96.5021
	minimum = 25
	maximum = 742
Slowest packet = 94
Flit latency average = 58.9004
	minimum = 6
	maximum = 721
Slowest flit = 1893
Fragmentation average = 34.9103
	minimum = 0
	maximum = 154
Injected packet rate average = 0.00820313
	minimum = 0.003 (at node 11)
	maximum = 0.014 (at node 15)
Accepted packet rate average = 0.0073125
	minimum = 0.002 (at node 24)
	maximum = 0.013 (at node 45)
Injected flit rate average = 0.161828
	minimum = 0.06 (at node 11)
	maximum = 0.28 (at node 15)
Accepted flit rate average= 0.149484
	minimum = 0.04 (at node 24)
	maximum = 0.26 (at node 45)
Injected packet length average = 19.7276
Accepted packet length average = 20.4423
Total in-flight flits = 933 (0 measured)
latency change    = 1
throughput change = 1
Class 0:
Packet latency average = 113.905
	minimum = 25
	maximum = 1175
Network latency average = 107.002
	minimum = 25
	maximum = 1175
Slowest packet = 403
Flit latency average = 65.6269
	minimum = 6
	maximum = 1156
Slowest flit = 8079
Fragmentation average = 38.241
	minimum = 0
	maximum = 181
Injected packet rate average = 0.00825781
	minimum = 0.0045 (at node 63)
	maximum = 0.0125 (at node 56)
Accepted packet rate average = 0.00755469
	minimum = 0.0035 (at node 24)
	maximum = 0.012 (at node 0)
Injected flit rate average = 0.163805
	minimum = 0.09 (at node 63)
	maximum = 0.25 (at node 56)
Accepted flit rate average= 0.154797
	minimum = 0.076 (at node 24)
	maximum = 0.24 (at node 0)
Injected packet length average = 19.8363
Accepted packet length average = 20.4902
Total in-flight flits = 1326 (0 measured)
latency change    = 0.107555
throughput change = 0.0343192
Class 0:
Packet latency average = 176.046
	minimum = 25
	maximum = 2153
Network latency average = 157.607
	minimum = 25
	maximum = 2153
Slowest packet = 421
Flit latency average = 104.534
	minimum = 6
	maximum = 2134
Slowest flit = 8439
Fragmentation average = 58.2915
	minimum = 0
	maximum = 191
Injected packet rate average = 0.00846875
	minimum = 0.003 (at node 16)
	maximum = 0.016 (at node 28)
Accepted packet rate average = 0.00846875
	minimum = 0.003 (at node 2)
	maximum = 0.015 (at node 9)
Injected flit rate average = 0.168922
	minimum = 0.06 (at node 16)
	maximum = 0.314 (at node 28)
Accepted flit rate average= 0.1675
	minimum = 0.06 (at node 2)
	maximum = 0.301 (at node 35)
Injected packet length average = 19.9465
Accepted packet length average = 19.7786
Total in-flight flits = 1446 (0 measured)
latency change    = 0.352983
throughput change = 0.0758396
Warmed up ...Time used is 3000 cycles
Class 0:
Packet latency average = 152.562
	minimum = 25
	maximum = 1295
Network latency average = 121.537
	minimum = 25
	maximum = 649
Slowest packet = 1600
Flit latency average = 101.753
	minimum = 6
	maximum = 1148
Slowest flit = 21775
Fragmentation average = 46.0415
	minimum = 0
	maximum = 189
Injected packet rate average = 0.00814063
	minimum = 0.003 (at node 61)
	maximum = 0.013 (at node 16)
Accepted packet rate average = 0.00809375
	minimum = 0.003 (at node 47)
	maximum = 0.014 (at node 50)
Injected flit rate average = 0.162906
	minimum = 0.06 (at node 61)
	maximum = 0.26 (at node 16)
Accepted flit rate average= 0.162562
	minimum = 0.06 (at node 47)
	maximum = 0.271 (at node 8)
Injected packet length average = 20.0115
Accepted packet length average = 20.0849
Total in-flight flits = 1462 (1342 measured)
latency change    = 0.15393
throughput change = 0.0303729
Class 0:
Packet latency average = 186.752
	minimum = 25
	maximum = 1295
Network latency average = 143.35
	minimum = 25
	maximum = 991
Slowest packet = 1600
Flit latency average = 111.727
	minimum = 6
	maximum = 4258
Slowest flit = 1955
Fragmentation average = 50.4609
	minimum = 0
	maximum = 189
Injected packet rate average = 0.00792188
	minimum = 0.0035 (at node 6)
	maximum = 0.0125 (at node 15)
Accepted packet rate average = 0.00807031
	minimum = 0.0035 (at node 47)
	maximum = 0.0125 (at node 57)
Injected flit rate average = 0.158938
	minimum = 0.074 (at node 6)
	maximum = 0.2425 (at node 15)
Accepted flit rate average= 0.161328
	minimum = 0.078 (at node 47)
	maximum = 0.2505 (at node 57)
Injected packet length average = 20.0631
Accepted packet length average = 19.9903
Total in-flight flits = 1076 (1016 measured)
latency change    = 0.183074
throughput change = 0.00765133
Class 0:
Packet latency average = 197.445
	minimum = 25
	maximum = 1861
Network latency average = 143.843
	minimum = 25
	maximum = 1411
Slowest packet = 1600
Flit latency average = 112.087
	minimum = 6
	maximum = 5264
Slowest flit = 4455
Fragmentation average = 50.7898
	minimum = 0
	maximum = 189
Injected packet rate average = 0.00788021
	minimum = 0.003 (at node 7)
	maximum = 0.012 (at node 15)
Accepted packet rate average = 0.00794792
	minimum = 0.004 (at node 47)
	maximum = 0.0123333 (at node 57)
Injected flit rate average = 0.15787
	minimum = 0.062 (at node 7)
	maximum = 0.24 (at node 15)
Accepted flit rate average= 0.159161
	minimum = 0.0773333 (at node 56)
	maximum = 0.244 (at node 57)
Injected packet length average = 20.0337
Accepted packet length average = 20.0256
Total in-flight flits = 1147 (1127 measured)
latency change    = 0.0541574
throughput change = 0.013613
Class 0:
Packet latency average = 209.912
	minimum = 25
	maximum = 2032
Network latency average = 144.737
	minimum = 25
	maximum = 1411
Slowest packet = 1600
Flit latency average = 107.998
	minimum = 6
	maximum = 5264
Slowest flit = 4455
Fragmentation average = 50.2677
	minimum = 0
	maximum = 189
Injected packet rate average = 0.00792188
	minimum = 0.00225 (at node 7)
	maximum = 0.012 (at node 48)
Accepted packet rate average = 0.00790625
	minimum = 0.003 (at node 56)
	maximum = 0.0115 (at node 57)
Injected flit rate average = 0.158543
	minimum = 0.0465 (at node 7)
	maximum = 0.239 (at node 48)
Accepted flit rate average= 0.158469
	minimum = 0.058 (at node 56)
	maximum = 0.228 (at node 57)
Injected packet length average = 20.0133
Accepted packet length average = 20.0435
Total in-flight flits = 1438 (1418 measured)
latency change    = 0.0593937
throughput change = 0.00437126
Class 0:
Packet latency average = 221.584
	minimum = 25
	maximum = 3827
Network latency average = 149.976
	minimum = 25
	maximum = 3064
Slowest packet = 2201
Flit latency average = 109.465
	minimum = 6
	maximum = 5264
Slowest flit = 4455
Fragmentation average = 51.2855
	minimum = 0
	maximum = 189
Injected packet rate average = 0.00789687
	minimum = 0.0018 (at node 7)
	maximum = 0.0114 (at node 15)
Accepted packet rate average = 0.00788438
	minimum = 0.0024 (at node 56)
	maximum = 0.011 (at node 6)
Injected flit rate average = 0.158034
	minimum = 0.0372 (at node 7)
	maximum = 0.228 (at node 15)
Accepted flit rate average= 0.157825
	minimum = 0.0464 (at node 56)
	maximum = 0.2198 (at node 6)
Injected packet length average = 20.0123
Accepted packet length average = 20.0174
Total in-flight flits = 1482 (1462 measured)
latency change    = 0.0526756
throughput change = 0.00407888
Class 0:
Packet latency average = 242.548
	minimum = 25
	maximum = 3827
Network latency average = 155.05
	minimum = 25
	maximum = 3070
Slowest packet = 2201
Flit latency average = 111.62
	minimum = 6
	maximum = 5264
Slowest flit = 4455
Fragmentation average = 52.0045
	minimum = 0
	maximum = 192
Injected packet rate average = 0.00782031
	minimum = 0.00333333 (at node 7)
	maximum = 0.011 (at node 15)
Accepted packet rate average = 0.00782292
	minimum = 0.002 (at node 56)
	maximum = 0.0103333 (at node 6)
Injected flit rate average = 0.156521
	minimum = 0.0655 (at node 7)
	maximum = 0.22 (at node 15)
Accepted flit rate average= 0.15637
	minimum = 0.043 (at node 56)
	maximum = 0.207667 (at node 57)
Injected packet length average = 20.0147
Accepted packet length average = 19.9887
Total in-flight flits = 1460 (1440 measured)
latency change    = 0.0864296
throughput change = 0.0093062
Average latency for class 0 exceeded 500 cycles. Aborting simulation.
Too many sample periods needed to converge
Simulation unstable, ending ...
Total run time 4.19051
