BEGIN Configuration File: ../../IL2236_project/verify/figure2/MAD/mesh88_lat
// $Id$

// Copyright (c) 2007-2015, Trustees of The Leland Stanford Junior University
// All rights reserved.
//
// Redistribution and use in source and binary forms, with or without
// modification, are permitted provided that the following conditions are met:
//
// Redistributions of source code must retain the above copyright notice, this
// list of conditions and the following disclaimer.
// Redistributions in binary form must reproduce the above copyright notice,
// this list of conditions and the following disclaimer in the documentation
// and/or other materials provided with the distribution.
//
// THIS SOFTWARE IS PROVIDED BY THE COPYRIGHT HOLDERS AND CONTRIBUTORS "AS IS"
// AND ANY EXPRESS OR IMPLIED WARRANTIES, INCLUDING, BUT NOT LIMITED TO, THE
// IMPLIED WARRANTIES OF MERCHANTABILITY AND FITNESS FOR A PARTICULAR PURPOSE
// ARE DISCLAIMED. IN NO EVENT SHALL THE COPYRIGHT OWNER OR CONTRIBUTORS BE
// LIABLE FOR ANY DIRECT, INDIRECT, INCIDENTAL, SPECIAL, EXEMPLARY, OR
// CONSEQUENTIAL DAMAGES (INCLUDING, BUT NOT LIMITED TO, PROCUREMENT OF
// SUBSTITUTE GOODS OR SERVICES; LOSS OF USE, DATA, OR PROFITS; OR BUSINESS
// INTERRUPTION) HOWEVER CAUSED AND ON ANY THEORY OF LIABILITY, WHETHER IN
// CONTRACT, STRICT LIABILITY, OR TORT (INCLUDING NEGLIGENCE OR OTHERWISE)
// ARISING IN ANY WAY OUT OF THE USE OF THIS SOFTWARE, EVEN IF ADVISED OF THE
// POSSIBILITY OF SUCH DAMAGE.

//8X8 mesh with 20 flits per packet under injection mode
//injection rate here is packet per cycle, NOT flit per cycle

// Topology

topology = mesh;
k = 8;
n = 2;

// Routing
routing_function = min_adapt;

// Flow control
num_vcs     = 8;
vc_buf_size = 8;
wait_for_tail_credit = 1;

// Router architecture
vc_allocator = islip;
sw_allocator = islip;
alloc_iters  = 1;

credit_delay   = 2;
routing_delay  = 0;
vc_alloc_delay = 1;
sw_alloc_delay = 1;

input_speedup     = 2;
output_speedup    = 1;
internal_speedup  = 1.0;


// Traffic
traffic = transpose;
packet_size = 20;


// Simulation
sim_type = latency;

injection_rate = .0090;


END Configuration File: ../../IL2236_project/verify/figure2/MAD/mesh88_lat
Class 0:
Packet latency average = 105.46
	minimum = 25
	maximum = 468
Network latency average = 99.0559
	minimum = 25
	maximum = 468
Slowest packet = 118
Flit latency average = 57.7671
	minimum = 6
	maximum = 441
Slowest flit = 2379
Fragmentation average = 41.2602
	minimum = 0
	maximum = 168
Injected packet rate average = 0.00865625
	minimum = 0.004 (at node 9)
	maximum = 0.017 (at node 42)
Accepted packet rate average = 0.00726563
	minimum = 0.002 (at node 32)
	maximum = 0.014 (at node 21)
Injected flit rate average = 0.170594
	minimum = 0.08 (at node 9)
	maximum = 0.34 (at node 42)
Accepted flit rate average= 0.152562
	minimum = 0.04 (at node 32)
	maximum = 0.303 (at node 21)
Injected packet length average = 19.7076
Accepted packet length average = 20.9978
Total in-flight flits = 1316 (0 measured)
latency change    = 1
throughput change = 1
Class 0:
Packet latency average = 140.391
	minimum = 25
	maximum = 860
Network latency average = 129.741
	minimum = 25
	maximum = 860
Slowest packet = 224
Flit latency average = 80.8162
	minimum = 6
	maximum = 828
Slowest flit = 4495
Fragmentation average = 52.4206
	minimum = 0
	maximum = 197
Injected packet rate average = 0.00847656
	minimum = 0.004 (at node 24)
	maximum = 0.0125 (at node 48)
Accepted packet rate average = 0.00767187
	minimum = 0.0035 (at node 3)
	maximum = 0.0115 (at node 5)
Injected flit rate average = 0.168078
	minimum = 0.08 (at node 24)
	maximum = 0.25 (at node 48)
Accepted flit rate average= 0.157
	minimum = 0.079 (at node 3)
	maximum = 0.23 (at node 5)
Injected packet length average = 19.8286
Accepted packet length average = 20.4644
Total in-flight flits = 1604 (0 measured)
latency change    = 0.248811
throughput change = 0.0282643
Class 0:
Packet latency average = 241.637
	minimum = 25
	maximum = 2340
Network latency average = 181.172
	minimum = 25
	maximum = 2340
Slowest packet = 294
Flit latency average = 123.331
	minimum = 6
	maximum = 2294
Slowest flit = 5895
Fragmentation average = 58.2665
	minimum = 0
	maximum = 188
Injected packet rate average = 0.00882812
	minimum = 0.002 (at node 56)
	maximum = 0.017 (at node 38)
Accepted packet rate average = 0.00873438
	minimum = 0.004 (at node 16)
	maximum = 0.017 (at node 52)
Injected flit rate average = 0.175109
	minimum = 0.04 (at node 56)
	maximum = 0.321 (at node 38)
Accepted flit rate average= 0.174984
	minimum = 0.078 (at node 53)
	maximum = 0.326 (at node 52)
Injected packet length average = 19.8354
Accepted packet length average = 20.034
Total in-flight flits = 1705 (0 measured)
latency change    = 0.419
throughput change = 0.102777
Warmed up ...Time used is 3000 cycles
Class 0:
Packet latency average = 207.105
	minimum = 25
	maximum = 1695
Network latency average = 131.395
	minimum = 25
	maximum = 790
Slowest packet = 1656
Flit latency average = 116.075
	minimum = 6
	maximum = 2602
Slowest flit = 15165
Fragmentation average = 52.7108
	minimum = 0
	maximum = 174
Injected packet rate average = 0.00845313
	minimum = 0.003 (at node 33)
	maximum = 0.016 (at node 12)
Accepted packet rate average = 0.0085
	minimum = 0.001 (at node 57)
	maximum = 0.018 (at node 33)
Injected flit rate average = 0.170359
	minimum = 0.06 (at node 33)
	maximum = 0.333 (at node 12)
Accepted flit rate average= 0.169563
	minimum = 0.043 (at node 7)
	maximum = 0.359 (at node 33)
Injected packet length average = 20.1534
Accepted packet length average = 19.9485
Total in-flight flits = 1673 (1470 measured)
latency change    = 0.166734
throughput change = 0.0319757
Average latency for class 0 exceeded 500 cycles. Aborting simulation.
Too many sample periods needed to converge
Simulation unstable, ending ...
Total run time 1.89732
