BEGIN Configuration File: ../../IL2236_project/verify/figure2/MAD/mesh88_lat
// $Id$

// Copyright (c) 2007-2015, Trustees of The Leland Stanford Junior University
// All rights reserved.
//
// Redistribution and use in source and binary forms, with or without
// modification, are permitted provided that the following conditions are met:
//
// Redistributions of source code must retain the above copyright notice, this
// list of conditions and the following disclaimer.
// Redistributions in binary form must reproduce the above copyright notice,
// this list of conditions and the following disclaimer in the documentation
// and/or other materials provided with the distribution.
//
// THIS SOFTWARE IS PROVIDED BY THE COPYRIGHT HOLDERS AND CONTRIBUTORS "AS IS"
// AND ANY EXPRESS OR IMPLIED WARRANTIES, INCLUDING, BUT NOT LIMITED TO, THE
// IMPLIED WARRANTIES OF MERCHANTABILITY AND FITNESS FOR A PARTICULAR PURPOSE
// ARE DISCLAIMED. IN NO EVENT SHALL THE COPYRIGHT OWNER OR CONTRIBUTORS BE
// LIABLE FOR ANY DIRECT, INDIRECT, INCIDENTAL, SPECIAL, EXEMPLARY, OR
// CONSEQUENTIAL DAMAGES (INCLUDING, BUT NOT LIMITED TO, PROCUREMENT OF
// SUBSTITUTE GOODS OR SERVICES; LOSS OF USE, DATA, OR PROFITS; OR BUSINESS
// INTERRUPTION) HOWEVER CAUSED AND ON ANY THEORY OF LIABILITY, WHETHER IN
// CONTRACT, STRICT LIABILITY, OR TORT (INCLUDING NEGLIGENCE OR OTHERWISE)
// ARISING IN ANY WAY OUT OF THE USE OF THIS SOFTWARE, EVEN IF ADVISED OF THE
// POSSIBILITY OF SUCH DAMAGE.

//8X8 mesh with 20 flits per packet under injection mode
//injection rate here is packet per cycle, NOT flit per cycle

// Topology

topology = mesh;
k = 8;
n = 2;

// Routing
routing_function = min_adapt;

// Flow control
num_vcs     = 8;
vc_buf_size = 8;
wait_for_tail_credit = 1;

// Router architecture
vc_allocator = islip;
sw_allocator = islip;
alloc_iters  = 1;

credit_delay   = 2;
routing_delay  = 0;
vc_alloc_delay = 1;
sw_alloc_delay = 1;

input_speedup     = 2;
output_speedup    = 1;
internal_speedup  = 1.0;


// Traffic
traffic = transpose;
packet_size = 20;


// Simulation
sim_type = latency;

injection_rate = .0100;


END Configuration File: ../../IL2236_project/verify/figure2/MAD/mesh88_lat
Class 0:
Packet latency average = 118.182
	minimum = 25
	maximum = 817
Network latency average = 107.617
	minimum = 25
	maximum = 595
Slowest packet = 114
Flit latency average = 64.9533
	minimum = 6
	maximum = 576
Slowest flit = 4299
Fragmentation average = 43.523
	minimum = 0
	maximum = 197
Injected packet rate average = 0.00920312
	minimum = 0.004 (at node 24)
	maximum = 0.019 (at node 25)
Accepted packet rate average = 0.00779687
	minimum = 0.002 (at node 7)
	maximum = 0.018 (at node 11)
Injected flit rate average = 0.180734
	minimum = 0.08 (at node 24)
	maximum = 0.38 (at node 25)
Accepted flit rate average= 0.162781
	minimum = 0.056 (at node 7)
	maximum = 0.373 (at node 11)
Injected packet length average = 19.6384
Accepted packet length average = 20.8778
Total in-flight flits = 1362 (0 measured)
latency change    = 1
throughput change = 1
Class 0:
Packet latency average = 161.407
	minimum = 25
	maximum = 1607
Network latency average = 134.33
	minimum = 25
	maximum = 1607
Slowest packet = 69
Flit latency average = 85.4012
	minimum = 6
	maximum = 1588
Slowest flit = 1399
Fragmentation average = 50.1174
	minimum = 0
	maximum = 197
Injected packet rate average = 0.00913281
	minimum = 0.005 (at node 11)
	maximum = 0.015 (at node 57)
Accepted packet rate average = 0.00825
	minimum = 0.0045 (at node 40)
	maximum = 0.0135 (at node 11)
Injected flit rate average = 0.180391
	minimum = 0.0995 (at node 61)
	maximum = 0.2945 (at node 57)
Accepted flit rate average= 0.168297
	minimum = 0.09 (at node 40)
	maximum = 0.2765 (at node 19)
Injected packet length average = 19.7519
Accepted packet length average = 20.3996
Total in-flight flits = 1838 (0 measured)
latency change    = 0.2678
throughput change = 0.0327732
Class 0:
Packet latency average = 279.557
	minimum = 25
	maximum = 2247
Network latency average = 186.744
	minimum = 25
	maximum = 2247
Slowest packet = 37
Flit latency average = 124.647
	minimum = 6
	maximum = 2206
Slowest flit = 759
Fragmentation average = 67.7694
	minimum = 0
	maximum = 189
Injected packet rate average = 0.00946875
	minimum = 0.003 (at node 59)
	maximum = 0.018 (at node 32)
Accepted packet rate average = 0.00928125
	minimum = 0.001 (at node 25)
	maximum = 0.016 (at node 60)
Injected flit rate average = 0.190609
	minimum = 0.067 (at node 11)
	maximum = 0.347 (at node 32)
Accepted flit rate average= 0.187891
	minimum = 0.039 (at node 25)
	maximum = 0.326 (at node 61)
Injected packet length average = 20.1304
Accepted packet length average = 20.2441
Total in-flight flits = 1933 (0 measured)
latency change    = 0.422633
throughput change = 0.104283
Average latency for class 0 exceeded 500 cycles. Aborting simulation.
Too many sample periods needed to converge
Simulation unstable, ending ...
Total run time 1.46437
