BEGIN Configuration File: ../../IL2236_project/verify/figure2/MAD/mesh88_lat
// $Id$

// Copyright (c) 2007-2015, Trustees of The Leland Stanford Junior University
// All rights reserved.
//
// Redistribution and use in source and binary forms, with or without
// modification, are permitted provided that the following conditions are met:
//
// Redistributions of source code must retain the above copyright notice, this
// list of conditions and the following disclaimer.
// Redistributions in binary form must reproduce the above copyright notice,
// this list of conditions and the following disclaimer in the documentation
// and/or other materials provided with the distribution.
//
// THIS SOFTWARE IS PROVIDED BY THE COPYRIGHT HOLDERS AND CONTRIBUTORS "AS IS"
// AND ANY EXPRESS OR IMPLIED WARRANTIES, INCLUDING, BUT NOT LIMITED TO, THE
// IMPLIED WARRANTIES OF MERCHANTABILITY AND FITNESS FOR A PARTICULAR PURPOSE
// ARE DISCLAIMED. IN NO EVENT SHALL THE COPYRIGHT OWNER OR CONTRIBUTORS BE
// LIABLE FOR ANY DIRECT, INDIRECT, INCIDENTAL, SPECIAL, EXEMPLARY, OR
// CONSEQUENTIAL DAMAGES (INCLUDING, BUT NOT LIMITED TO, PROCUREMENT OF
// SUBSTITUTE GOODS OR SERVICES; LOSS OF USE, DATA, OR PROFITS; OR BUSINESS
// INTERRUPTION) HOWEVER CAUSED AND ON ANY THEORY OF LIABILITY, WHETHER IN
// CONTRACT, STRICT LIABILITY, OR TORT (INCLUDING NEGLIGENCE OR OTHERWISE)
// ARISING IN ANY WAY OUT OF THE USE OF THIS SOFTWARE, EVEN IF ADVISED OF THE
// POSSIBILITY OF SUCH DAMAGE.

//8X8 mesh with 20 flits per packet under injection mode
//injection rate here is packet per cycle, NOT flit per cycle

// Topology

topology = mesh;
k = 8;
n = 2;

// Routing
routing_function = min_adapt;

// Flow control
num_vcs     = 8;
vc_buf_size = 8;
wait_for_tail_credit = 1;

// Router architecture
vc_allocator = islip;
sw_allocator = islip;
alloc_iters  = 1;

credit_delay   = 2;
routing_delay  = 0;
vc_alloc_delay = 1;
sw_alloc_delay = 1;

input_speedup     = 2;
output_speedup    = 1;
internal_speedup  = 1.0;


// Traffic
traffic = transpose;
packet_size = 20;


// Simulation
sim_type = latency;

injection_rate = .0115;


END Configuration File: ../../IL2236_project/verify/figure2/MAD/mesh88_lat
Class 0:
Packet latency average = 131.554
	minimum = 25
	maximum = 835
Network latency average = 119.65
	minimum = 25
	maximum = 835
Slowest packet = 77
Flit latency average = 72.6751
	minimum = 6
	maximum = 816
Slowest flit = 1559
Fragmentation average = 51.8011
	minimum = 0
	maximum = 193
Injected packet rate average = 0.0105313
	minimum = 0.004 (at node 13)
	maximum = 0.019 (at node 46)
Accepted packet rate average = 0.00879687
	minimum = 0.002 (at node 22)
	maximum = 0.019 (at node 53)
Injected flit rate average = 0.207359
	minimum = 0.08 (at node 13)
	maximum = 0.38 (at node 46)
Accepted flit rate average= 0.185594
	minimum = 0.045 (at node 22)
	maximum = 0.38 (at node 53)
Injected packet length average = 19.6899
Accepted packet length average = 21.0977
Total in-flight flits = 1602 (0 measured)
latency change    = 1
throughput change = 1
Class 0:
Packet latency average = 182.111
	minimum = 25
	maximum = 1312
Network latency average = 147.014
	minimum = 25
	maximum = 1312
Slowest packet = 177
Flit latency average = 92.3085
	minimum = 6
	maximum = 1277
Slowest flit = 3559
Fragmentation average = 58.776
	minimum = 0
	maximum = 195
Injected packet rate average = 0.0102422
	minimum = 0.0055 (at node 3)
	maximum = 0.0175 (at node 46)
Accepted packet rate average = 0.00924219
	minimum = 0.004 (at node 31)
	maximum = 0.0175 (at node 53)
Injected flit rate average = 0.202617
	minimum = 0.104 (at node 3)
	maximum = 0.35 (at node 46)
Accepted flit rate average= 0.188594
	minimum = 0.08 (at node 41)
	maximum = 0.35 (at node 53)
Injected packet length average = 19.7826
Accepted packet length average = 20.4057
Total in-flight flits = 2080 (0 measured)
latency change    = 0.277614
throughput change = 0.0159072
Class 0:
Packet latency average = 320.777
	minimum = 25
	maximum = 2628
Network latency average = 206.38
	minimum = 25
	maximum = 2628
Slowest packet = 246
Flit latency average = 139.841
	minimum = 6
	maximum = 2577
Slowest flit = 4935
Fragmentation average = 70.9735
	minimum = 0
	maximum = 184
Injected packet rate average = 0.0102188
	minimum = 0 (at node 15)
	maximum = 0.017 (at node 27)
Accepted packet rate average = 0.0100313
	minimum = 0.004 (at node 24)
	maximum = 0.018 (at node 27)
Injected flit rate average = 0.20475
	minimum = 0 (at node 15)
	maximum = 0.346 (at node 27)
Accepted flit rate average= 0.202547
	minimum = 0.087 (at node 24)
	maximum = 0.352 (at node 27)
Injected packet length average = 20.0367
Accepted packet length average = 20.1916
Total in-flight flits = 2197 (0 measured)
latency change    = 0.432283
throughput change = 0.0688884
Average latency for class 0 exceeded 500 cycles. Aborting simulation.
Too many sample periods needed to converge
Simulation unstable, ending ...
Total run time 1.57307
