BEGIN Configuration File: ../../IL2236_project/verify/figure2/MAD/mesh88_lat
// $Id$

// Copyright (c) 2007-2015, Trustees of The Leland Stanford Junior University
// All rights reserved.
//
// Redistribution and use in source and binary forms, with or without
// modification, are permitted provided that the following conditions are met:
//
// Redistributions of source code must retain the above copyright notice, this
// list of conditions and the following disclaimer.
// Redistributions in binary form must reproduce the above copyright notice,
// this list of conditions and the following disclaimer in the documentation
// and/or other materials provided with the distribution.
//
// THIS SOFTWARE IS PROVIDED BY THE COPYRIGHT HOLDERS AND CONTRIBUTORS "AS IS"
// AND ANY EXPRESS OR IMPLIED WARRANTIES, INCLUDING, BUT NOT LIMITED TO, THE
// IMPLIED WARRANTIES OF MERCHANTABILITY AND FITNESS FOR A PARTICULAR PURPOSE
// ARE DISCLAIMED. IN NO EVENT SHALL THE COPYRIGHT OWNER OR CONTRIBUTORS BE
// LIABLE FOR ANY DIRECT, INDIRECT, INCIDENTAL, SPECIAL, EXEMPLARY, OR
// CONSEQUENTIAL DAMAGES (INCLUDING, BUT NOT LIMITED TO, PROCUREMENT OF
// SUBSTITUTE GOODS OR SERVICES; LOSS OF USE, DATA, OR PROFITS; OR BUSINESS
// INTERRUPTION) HOWEVER CAUSED AND ON ANY THEORY OF LIABILITY, WHETHER IN
// CONTRACT, STRICT LIABILITY, OR TORT (INCLUDING NEGLIGENCE OR OTHERWISE)
// ARISING IN ANY WAY OUT OF THE USE OF THIS SOFTWARE, EVEN IF ADVISED OF THE
// POSSIBILITY OF SUCH DAMAGE.

//8X8 mesh with 20 flits per packet under injection mode
//injection rate here is packet per cycle, NOT flit per cycle

// Topology

topology = mesh;
k = 8;
n = 2;

// Routing
routing_function = min_adapt;

// Flow control
num_vcs     = 8;
vc_buf_size = 8;
wait_for_tail_credit = 1;

// Router architecture
vc_allocator = islip;
sw_allocator = islip;
alloc_iters  = 1;

credit_delay   = 2;
routing_delay  = 0;
vc_alloc_delay = 1;
sw_alloc_delay = 1;

input_speedup     = 2;
output_speedup    = 1;
internal_speedup  = 1.0;


// Traffic
traffic = transpose;
packet_size = 20;


// Simulation
sim_type = latency;

injection_rate = .0110;


END Configuration File: ../../IL2236_project/verify/figure2/MAD/mesh88_lat
Class 0:
Packet latency average = 123.816
	minimum = 25
	maximum = 740
Network latency average = 113.174
	minimum = 25
	maximum = 740
Slowest packet = 115
Flit latency average = 68.8473
	minimum = 6
	maximum = 709
Slowest flit = 2315
Fragmentation average = 47.6289
	minimum = 0
	maximum = 205
Injected packet rate average = 0.0099375
	minimum = 0.003 (at node 56)
	maximum = 0.02 (at node 58)
Accepted packet rate average = 0.00842188
	minimum = 0.001 (at node 7)
	maximum = 0.017 (at node 10)
Injected flit rate average = 0.195859
	minimum = 0.056 (at node 56)
	maximum = 0.4 (at node 58)
Accepted flit rate average= 0.174063
	minimum = 0.02 (at node 7)
	maximum = 0.34 (at node 10)
Injected packet length average = 19.7091
Accepted packet length average = 20.6679
Total in-flight flits = 1580 (0 measured)
latency change    = 1
throughput change = 1
Class 0:
Packet latency average = 176.175
	minimum = 25
	maximum = 1275
Network latency average = 146.581
	minimum = 25
	maximum = 917
Slowest packet = 115
Flit latency average = 93.6087
	minimum = 6
	maximum = 896
Slowest flit = 9579
Fragmentation average = 56.5282
	minimum = 0
	maximum = 205
Injected packet rate average = 0.00967969
	minimum = 0.0015 (at node 56)
	maximum = 0.0165 (at node 17)
Accepted packet rate average = 0.00872656
	minimum = 0.0005 (at node 7)
	maximum = 0.016 (at node 10)
Injected flit rate average = 0.191758
	minimum = 0.028 (at node 56)
	maximum = 0.33 (at node 17)
Accepted flit rate average= 0.178836
	minimum = 0.01 (at node 7)
	maximum = 0.322 (at node 10)
Injected packet length average = 19.8103
Accepted packet length average = 20.4933
Total in-flight flits = 1889 (0 measured)
latency change    = 0.297195
throughput change = 0.0266917
Class 0:
Packet latency average = 334.787
	minimum = 25
	maximum = 2646
Network latency average = 194.723
	minimum = 25
	maximum = 2646
Slowest packet = 15
Flit latency average = 127.575
	minimum = 6
	maximum = 2625
Slowest flit = 315
Fragmentation average = 71.4992
	minimum = 0
	maximum = 196
Injected packet rate average = 0.00985938
	minimum = 0 (at node 15)
	maximum = 0.016 (at node 43)
Accepted packet rate average = 0.00970312
	minimum = 0.001 (at node 7)
	maximum = 0.015 (at node 10)
Injected flit rate average = 0.196922
	minimum = 0 (at node 15)
	maximum = 0.324 (at node 43)
Accepted flit rate average= 0.195156
	minimum = 0.02 (at node 7)
	maximum = 0.318 (at node 29)
Injected packet length average = 19.9731
Accepted packet length average = 20.1127
Total in-flight flits = 2019 (0 measured)
latency change    = 0.473772
throughput change = 0.0836269
Average latency for class 0 exceeded 500 cycles. Aborting simulation.
Too many sample periods needed to converge
Simulation unstable, ending ...
Total run time 1.51147
