BEGIN Configuration File: ../../IL2236_project/verify/figure2/MAD/mesh88_lat
// $Id$

// Copyright (c) 2007-2015, Trustees of The Leland Stanford Junior University
// All rights reserved.
//
// Redistribution and use in source and binary forms, with or without
// modification, are permitted provided that the following conditions are met:
//
// Redistributions of source code must retain the above copyright notice, this
// list of conditions and the following disclaimer.
// Redistributions in binary form must reproduce the above copyright notice,
// this list of conditions and the following disclaimer in the documentation
// and/or other materials provided with the distribution.
//
// THIS SOFTWARE IS PROVIDED BY THE COPYRIGHT HOLDERS AND CONTRIBUTORS "AS IS"
// AND ANY EXPRESS OR IMPLIED WARRANTIES, INCLUDING, BUT NOT LIMITED TO, THE
// IMPLIED WARRANTIES OF MERCHANTABILITY AND FITNESS FOR A PARTICULAR PURPOSE
// ARE DISCLAIMED. IN NO EVENT SHALL THE COPYRIGHT OWNER OR CONTRIBUTORS BE
// LIABLE FOR ANY DIRECT, INDIRECT, INCIDENTAL, SPECIAL, EXEMPLARY, OR
// CONSEQUENTIAL DAMAGES (INCLUDING, BUT NOT LIMITED TO, PROCUREMENT OF
// SUBSTITUTE GOODS OR SERVICES; LOSS OF USE, DATA, OR PROFITS; OR BUSINESS
// INTERRUPTION) HOWEVER CAUSED AND ON ANY THEORY OF LIABILITY, WHETHER IN
// CONTRACT, STRICT LIABILITY, OR TORT (INCLUDING NEGLIGENCE OR OTHERWISE)
// ARISING IN ANY WAY OUT OF THE USE OF THIS SOFTWARE, EVEN IF ADVISED OF THE
// POSSIBILITY OF SUCH DAMAGE.

//8X8 mesh with 20 flits per packet under injection mode
//injection rate here is packet per cycle, NOT flit per cycle

// Topology

topology = mesh;
k = 8;
n = 2;

// Routing
routing_function = min_adapt;

// Flow control
num_vcs     = 8;
vc_buf_size = 8;
wait_for_tail_credit = 1;

// Router architecture
vc_allocator = islip;
sw_allocator = islip;
alloc_iters  = 1;

credit_delay   = 2;
routing_delay  = 0;
vc_alloc_delay = 1;
sw_alloc_delay = 1;

input_speedup     = 2;
output_speedup    = 1;
internal_speedup  = 1.0;


// Traffic
traffic = transpose;
packet_size = 20;


// Simulation
sim_type = latency;

injection_rate = .0125;


END Configuration File: ../../IL2236_project/verify/figure2/MAD/mesh88_lat
Class 0:
Packet latency average = 127.525
	minimum = 25
	maximum = 702
Network latency average = 115.491
	minimum = 25
	maximum = 702
Slowest packet = 38
Flit latency average = 69.8327
	minimum = 6
	maximum = 683
Slowest flit = 779
Fragmentation average = 48.7453
	minimum = 0
	maximum = 190
Injected packet rate average = 0.0111562
	minimum = 0.001 (at node 15)
	maximum = 0.018 (at node 8)
Accepted packet rate average = 0.00920312
	minimum = 0 (at node 57)
	maximum = 0.017 (at node 1)
Injected flit rate average = 0.219781
	minimum = 0.016 (at node 15)
	maximum = 0.36 (at node 8)
Accepted flit rate average= 0.193469
	minimum = 0 (at node 57)
	maximum = 0.348 (at node 1)
Injected packet length average = 19.7003
Accepted packet length average = 21.0221
Total in-flight flits = 1898 (0 measured)
latency change    = 1
throughput change = 1
Class 0:
Packet latency average = 197.848
	minimum = 25
	maximum = 1429
Network latency average = 148.834
	minimum = 25
	maximum = 1282
Slowest packet = 38
Flit latency average = 94.7079
	minimum = 6
	maximum = 1263
Slowest flit = 9099
Fragmentation average = 58.0623
	minimum = 0
	maximum = 209
Injected packet rate average = 0.0106953
	minimum = 0.0015 (at node 56)
	maximum = 0.018 (at node 23)
Accepted packet rate average = 0.00953125
	minimum = 0.001 (at node 7)
	maximum = 0.018 (at node 45)
Injected flit rate average = 0.211227
	minimum = 0.028 (at node 56)
	maximum = 0.36 (at node 45)
Accepted flit rate average= 0.194383
	minimum = 0.02 (at node 7)
	maximum = 0.36 (at node 45)
Injected packet length average = 19.7495
Accepted packet length average = 20.3943
Total in-flight flits = 2499 (0 measured)
latency change    = 0.35544
throughput change = 0.00470238
Class 0:
Packet latency average = 409.413
	minimum = 25
	maximum = 1980
Network latency average = 218.863
	minimum = 25
	maximum = 1717
Slowest packet = 296
Flit latency average = 148.451
	minimum = 6
	maximum = 1674
Slowest flit = 5935
Fragmentation average = 70.3458
	minimum = 0
	maximum = 188
Injected packet rate average = 0.0101406
	minimum = 0 (at node 56)
	maximum = 0.019 (at node 26)
Accepted packet rate average = 0.0100313
	minimum = 0 (at node 7)
	maximum = 0.018 (at node 6)
Injected flit rate average = 0.202656
	minimum = 0 (at node 56)
	maximum = 0.384 (at node 26)
Accepted flit rate average= 0.202531
	minimum = 0 (at node 7)
	maximum = 0.375 (at node 19)
Injected packet length average = 19.9846
Accepted packet length average = 20.19
Total in-flight flits = 2517 (0 measured)
latency change    = 0.516753
throughput change = 0.040233
Average latency for class 0 exceeded 500 cycles. Aborting simulation.
Too many sample periods needed to converge
Simulation unstable, ending ...
Total run time 1.59811
