BEGIN Configuration File: ../../IL2236_project/verify/figure2/MAD/mesh88_lat
// $Id$

// Copyright (c) 2007-2015, Trustees of The Leland Stanford Junior University
// All rights reserved.
//
// Redistribution and use in source and binary forms, with or without
// modification, are permitted provided that the following conditions are met:
//
// Redistributions of source code must retain the above copyright notice, this
// list of conditions and the following disclaimer.
// Redistributions in binary form must reproduce the above copyright notice,
// this list of conditions and the following disclaimer in the documentation
// and/or other materials provided with the distribution.
//
// THIS SOFTWARE IS PROVIDED BY THE COPYRIGHT HOLDERS AND CONTRIBUTORS "AS IS"
// AND ANY EXPRESS OR IMPLIED WARRANTIES, INCLUDING, BUT NOT LIMITED TO, THE
// IMPLIED WARRANTIES OF MERCHANTABILITY AND FITNESS FOR A PARTICULAR PURPOSE
// ARE DISCLAIMED. IN NO EVENT SHALL THE COPYRIGHT OWNER OR CONTRIBUTORS BE
// LIABLE FOR ANY DIRECT, INDIRECT, INCIDENTAL, SPECIAL, EXEMPLARY, OR
// CONSEQUENTIAL DAMAGES (INCLUDING, BUT NOT LIMITED TO, PROCUREMENT OF
// SUBSTITUTE GOODS OR SERVICES; LOSS OF USE, DATA, OR PROFITS; OR BUSINESS
// INTERRUPTION) HOWEVER CAUSED AND ON ANY THEORY OF LIABILITY, WHETHER IN
// CONTRACT, STRICT LIABILITY, OR TORT (INCLUDING NEGLIGENCE OR OTHERWISE)
// ARISING IN ANY WAY OUT OF THE USE OF THIS SOFTWARE, EVEN IF ADVISED OF THE
// POSSIBILITY OF SUCH DAMAGE.

//8X8 mesh with 20 flits per packet under injection mode
//injection rate here is packet per cycle, NOT flit per cycle

// Topology

topology = mesh;
k = 8;
n = 2;

// Routing
routing_function = min_adapt;

// Flow control
num_vcs     = 8;
vc_buf_size = 8;
wait_for_tail_credit = 1;

// Router architecture
vc_allocator = islip;
sw_allocator = islip;
alloc_iters  = 1;

credit_delay   = 2;
routing_delay  = 0;
vc_alloc_delay = 1;
sw_alloc_delay = 1;

input_speedup     = 2;
output_speedup    = 1;
internal_speedup  = 1.0;


// Traffic
traffic = transpose;
packet_size = 20;


// Simulation
sim_type = latency;

injection_rate = .0150;


END Configuration File: ../../IL2236_project/verify/figure2/MAD/mesh88_lat
Class 0:
Packet latency average = 158.462
	minimum = 25
	maximum = 779
Network latency average = 135.307
	minimum = 25
	maximum = 764
Slowest packet = 180
Flit latency average = 83.989
	minimum = 6
	maximum = 731
Slowest flit = 3609
Fragmentation average = 58.7418
	minimum = 0
	maximum = 212
Injected packet rate average = 0.01225
	minimum = 0.001 (at node 7)
	maximum = 0.024 (at node 40)
Accepted packet rate average = 0.0095625
	minimum = 0 (at node 56)
	maximum = 0.02 (at node 36)
Injected flit rate average = 0.23975
	minimum = 0.016 (at node 7)
	maximum = 0.476 (at node 40)
Accepted flit rate average= 0.203187
	minimum = 0 (at node 56)
	maximum = 0.4 (at node 36)
Injected packet length average = 19.5714
Accepted packet length average = 21.2484
Total in-flight flits = 2676 (0 measured)
latency change    = 1
throughput change = 1
Class 0:
Packet latency average = 263.872
	minimum = 25
	maximum = 1800
Network latency average = 182.274
	minimum = 25
	maximum = 1800
Slowest packet = 70
Flit latency average = 118.063
	minimum = 6
	maximum = 1756
Slowest flit = 1415
Fragmentation average = 70.8161
	minimum = 0
	maximum = 212
Injected packet rate average = 0.0115859
	minimum = 0.0005 (at node 7)
	maximum = 0.0205 (at node 40)
Accepted packet rate average = 0.0102813
	minimum = 0 (at node 56)
	maximum = 0.0185 (at node 19)
Injected flit rate average = 0.228828
	minimum = 0.008 (at node 7)
	maximum = 0.401 (at node 40)
Accepted flit rate average= 0.210898
	minimum = 0 (at node 56)
	maximum = 0.3785 (at node 19)
Injected packet length average = 19.7505
Accepted packet length average = 20.5129
Total in-flight flits = 2665 (0 measured)
latency change    = 0.399473
throughput change = 0.0365623
Average latency for class 0 exceeded 500 cycles. Aborting simulation.
Too many sample periods needed to converge
Simulation unstable, ending ...
Total run time 1.11357
