BEGIN Configuration File: ../../IL2236_project/verify/figure2/MAD/mesh88_lat
// $Id$

// Copyright (c) 2007-2015, Trustees of The Leland Stanford Junior University
// All rights reserved.
//
// Redistribution and use in source and binary forms, with or without
// modification, are permitted provided that the following conditions are met:
//
// Redistributions of source code must retain the above copyright notice, this
// list of conditions and the following disclaimer.
// Redistributions in binary form must reproduce the above copyright notice,
// this list of conditions and the following disclaimer in the documentation
// and/or other materials provided with the distribution.
//
// THIS SOFTWARE IS PROVIDED BY THE COPYRIGHT HOLDERS AND CONTRIBUTORS "AS IS"
// AND ANY EXPRESS OR IMPLIED WARRANTIES, INCLUDING, BUT NOT LIMITED TO, THE
// IMPLIED WARRANTIES OF MERCHANTABILITY AND FITNESS FOR A PARTICULAR PURPOSE
// ARE DISCLAIMED. IN NO EVENT SHALL THE COPYRIGHT OWNER OR CONTRIBUTORS BE
// LIABLE FOR ANY DIRECT, INDIRECT, INCIDENTAL, SPECIAL, EXEMPLARY, OR
// CONSEQUENTIAL DAMAGES (INCLUDING, BUT NOT LIMITED TO, PROCUREMENT OF
// SUBSTITUTE GOODS OR SERVICES; LOSS OF USE, DATA, OR PROFITS; OR BUSINESS
// INTERRUPTION) HOWEVER CAUSED AND ON ANY THEORY OF LIABILITY, WHETHER IN
// CONTRACT, STRICT LIABILITY, OR TORT (INCLUDING NEGLIGENCE OR OTHERWISE)
// ARISING IN ANY WAY OUT OF THE USE OF THIS SOFTWARE, EVEN IF ADVISED OF THE
// POSSIBILITY OF SUCH DAMAGE.

//8X8 mesh with 20 flits per packet under injection mode
//injection rate here is packet per cycle, NOT flit per cycle

// Topology

topology = mesh;
k = 8;
n = 2;

// Routing
routing_function = min_adapt;

// Flow control
num_vcs     = 8;
vc_buf_size = 8;
wait_for_tail_credit = 1;

// Router architecture
vc_allocator = islip;
sw_allocator = islip;
alloc_iters  = 1;

credit_delay   = 2;
routing_delay  = 0;
vc_alloc_delay = 1;
sw_alloc_delay = 1;

input_speedup     = 2;
output_speedup    = 1;
internal_speedup  = 1.0;


// Traffic
traffic = transpose;
packet_size = 20;


// Simulation
sim_type = latency;

injection_rate = .0155;


END Configuration File: ../../IL2236_project/verify/figure2/MAD/mesh88_lat
Class 0:
Packet latency average = 155.881
	minimum = 25
	maximum = 702
Network latency average = 129.166
	minimum = 25
	maximum = 612
Slowest packet = 204
Flit latency average = 78.7627
	minimum = 6
	maximum = 671
Slowest flit = 5177
Fragmentation average = 58.4761
	minimum = 0
	maximum = 211
Injected packet rate average = 0.0126094
	minimum = 0.001 (at node 7)
	maximum = 0.022 (at node 54)
Accepted packet rate average = 0.0101406
	minimum = 0 (at node 56)
	maximum = 0.022 (at node 63)
Injected flit rate average = 0.246828
	minimum = 0.016 (at node 7)
	maximum = 0.44 (at node 63)
Accepted flit rate average= 0.213547
	minimum = 0 (at node 56)
	maximum = 0.44 (at node 63)
Injected packet length average = 19.575
Accepted packet length average = 21.0586
Total in-flight flits = 2473 (0 measured)
latency change    = 1
throughput change = 1
Class 0:
Packet latency average = 241.238
	minimum = 25
	maximum = 1819
Network latency average = 169.617
	minimum = 25
	maximum = 1819
Slowest packet = 103
Flit latency average = 107.261
	minimum = 6
	maximum = 1762
Slowest flit = 2075
Fragmentation average = 67.6239
	minimum = 0
	maximum = 211
Injected packet rate average = 0.0119688
	minimum = 0.0005 (at node 7)
	maximum = 0.0205 (at node 54)
Accepted packet rate average = 0.0105938
	minimum = 0 (at node 56)
	maximum = 0.02 (at node 54)
Injected flit rate average = 0.236227
	minimum = 0.008 (at node 7)
	maximum = 0.4085 (at node 54)
Accepted flit rate average= 0.217867
	minimum = 0 (at node 56)
	maximum = 0.4055 (at node 54)
Injected packet length average = 19.7369
Accepted packet length average = 20.5656
Total in-flight flits = 2753 (0 measured)
latency change    = 0.353828
throughput change = 0.01983
Average latency for class 0 exceeded 500 cycles. Aborting simulation.
Too many sample periods needed to converge
Simulation unstable, ending ...
Total run time 1.09854
