BEGIN Configuration File: ../../IL2236_project/verify/figure2/MAD/mesh88_lat
// $Id$

// Copyright (c) 2007-2015, Trustees of The Leland Stanford Junior University
// All rights reserved.
//
// Redistribution and use in source and binary forms, with or without
// modification, are permitted provided that the following conditions are met:
//
// Redistributions of source code must retain the above copyright notice, this
// list of conditions and the following disclaimer.
// Redistributions in binary form must reproduce the above copyright notice,
// this list of conditions and the following disclaimer in the documentation
// and/or other materials provided with the distribution.
//
// THIS SOFTWARE IS PROVIDED BY THE COPYRIGHT HOLDERS AND CONTRIBUTORS "AS IS"
// AND ANY EXPRESS OR IMPLIED WARRANTIES, INCLUDING, BUT NOT LIMITED TO, THE
// IMPLIED WARRANTIES OF MERCHANTABILITY AND FITNESS FOR A PARTICULAR PURPOSE
// ARE DISCLAIMED. IN NO EVENT SHALL THE COPYRIGHT OWNER OR CONTRIBUTORS BE
// LIABLE FOR ANY DIRECT, INDIRECT, INCIDENTAL, SPECIAL, EXEMPLARY, OR
// CONSEQUENTIAL DAMAGES (INCLUDING, BUT NOT LIMITED TO, PROCUREMENT OF
// SUBSTITUTE GOODS OR SERVICES; LOSS OF USE, DATA, OR PROFITS; OR BUSINESS
// INTERRUPTION) HOWEVER CAUSED AND ON ANY THEORY OF LIABILITY, WHETHER IN
// CONTRACT, STRICT LIABILITY, OR TORT (INCLUDING NEGLIGENCE OR OTHERWISE)
// ARISING IN ANY WAY OUT OF THE USE OF THIS SOFTWARE, EVEN IF ADVISED OF THE
// POSSIBILITY OF SUCH DAMAGE.

//8X8 mesh with 20 flits per packet under injection mode
//injection rate here is packet per cycle, NOT flit per cycle

// Topology

topology = mesh;
k = 8;
n = 2;

// Routing
routing_function = min_adapt;

// Flow control
num_vcs     = 8;
vc_buf_size = 8;
wait_for_tail_credit = 1;

// Router architecture
vc_allocator = islip;
sw_allocator = islip;
alloc_iters  = 1;

credit_delay   = 2;
routing_delay  = 0;
vc_alloc_delay = 1;
sw_alloc_delay = 1;

input_speedup     = 2;
output_speedup    = 1;
internal_speedup  = 1.0;


// Traffic
traffic = transpose;
packet_size = 20;


// Simulation
sim_type = latency;

injection_rate = .0165;


END Configuration File: ../../IL2236_project/verify/figure2/MAD/mesh88_lat
Class 0:
Packet latency average = 166.646
	minimum = 25
	maximum = 785
Network latency average = 139.493
	minimum = 25
	maximum = 785
Slowest packet = 124
Flit latency average = 84.6706
	minimum = 6
	maximum = 731
Slowest flit = 2495
Fragmentation average = 62.4103
	minimum = 0
	maximum = 202
Injected packet rate average = 0.0128437
	minimum = 0.001 (at node 7)
	maximum = 0.025 (at node 16)
Accepted packet rate average = 0.0100156
	minimum = 0 (at node 56)
	maximum = 0.021 (at node 2)
Injected flit rate average = 0.249828
	minimum = 0.016 (at node 7)
	maximum = 0.49 (at node 16)
Accepted flit rate average= 0.212188
	minimum = 0 (at node 56)
	maximum = 0.453 (at node 2)
Injected packet length average = 19.4513
Accepted packet length average = 21.1856
Total in-flight flits = 2860 (0 measured)
latency change    = 1
throughput change = 1
Class 0:
Packet latency average = 270.535
	minimum = 25
	maximum = 1665
Network latency average = 176.374
	minimum = 25
	maximum = 1665
Slowest packet = 133
Flit latency average = 112.789
	minimum = 6
	maximum = 1646
Slowest flit = 2679
Fragmentation average = 68.1734
	minimum = 0
	maximum = 202
Injected packet rate average = 0.0121641
	minimum = 0.0005 (at node 7)
	maximum = 0.023 (at node 46)
Accepted packet rate average = 0.0108125
	minimum = 0 (at node 56)
	maximum = 0.022 (at node 53)
Injected flit rate average = 0.240594
	minimum = 0.008 (at node 7)
	maximum = 0.458 (at node 46)
Accepted flit rate average= 0.221984
	minimum = 0 (at node 56)
	maximum = 0.451 (at node 53)
Injected packet length average = 19.7791
Accepted packet length average = 20.5303
Total in-flight flits = 2726 (0 measured)
latency change    = 0.384013
throughput change = 0.0441332
Average latency for class 0 exceeded 500 cycles. Aborting simulation.
Too many sample periods needed to converge
Simulation unstable, ending ...
Total run time 1.13521
