BEGIN Configuration File: ../../IL2236_project/verify/figure2/MAD/mesh88_lat
// $Id$

// Copyright (c) 2007-2015, Trustees of The Leland Stanford Junior University
// All rights reserved.
//
// Redistribution and use in source and binary forms, with or without
// modification, are permitted provided that the following conditions are met:
//
// Redistributions of source code must retain the above copyright notice, this
// list of conditions and the following disclaimer.
// Redistributions in binary form must reproduce the above copyright notice,
// this list of conditions and the following disclaimer in the documentation
// and/or other materials provided with the distribution.
//
// THIS SOFTWARE IS PROVIDED BY THE COPYRIGHT HOLDERS AND CONTRIBUTORS "AS IS"
// AND ANY EXPRESS OR IMPLIED WARRANTIES, INCLUDING, BUT NOT LIMITED TO, THE
// IMPLIED WARRANTIES OF MERCHANTABILITY AND FITNESS FOR A PARTICULAR PURPOSE
// ARE DISCLAIMED. IN NO EVENT SHALL THE COPYRIGHT OWNER OR CONTRIBUTORS BE
// LIABLE FOR ANY DIRECT, INDIRECT, INCIDENTAL, SPECIAL, EXEMPLARY, OR
// CONSEQUENTIAL DAMAGES (INCLUDING, BUT NOT LIMITED TO, PROCUREMENT OF
// SUBSTITUTE GOODS OR SERVICES; LOSS OF USE, DATA, OR PROFITS; OR BUSINESS
// INTERRUPTION) HOWEVER CAUSED AND ON ANY THEORY OF LIABILITY, WHETHER IN
// CONTRACT, STRICT LIABILITY, OR TORT (INCLUDING NEGLIGENCE OR OTHERWISE)
// ARISING IN ANY WAY OUT OF THE USE OF THIS SOFTWARE, EVEN IF ADVISED OF THE
// POSSIBILITY OF SUCH DAMAGE.

//8X8 mesh with 20 flits per packet under injection mode
//injection rate here is packet per cycle, NOT flit per cycle

// Topology

topology = mesh;
k = 8;
n = 2;

// Routing
routing_function = min_adapt;

// Flow control
num_vcs     = 8;
vc_buf_size = 8;
wait_for_tail_credit = 1;

// Router architecture
vc_allocator = islip;
sw_allocator = islip;
alloc_iters  = 1;

credit_delay   = 2;
routing_delay  = 0;
vc_alloc_delay = 1;
sw_alloc_delay = 1;

input_speedup     = 2;
output_speedup    = 1;
internal_speedup  = 1.0;


// Traffic
traffic = transpose;
packet_size = 20;


// Simulation
sim_type = latency;

injection_rate = .0160;


END Configuration File: ../../IL2236_project/verify/figure2/MAD/mesh88_lat
Class 0:
Packet latency average = 152.301
	minimum = 25
	maximum = 749
Network latency average = 129.477
	minimum = 25
	maximum = 747
Slowest packet = 146
Flit latency average = 79.4547
	minimum = 6
	maximum = 728
Slowest flit = 2939
Fragmentation average = 56.9635
	minimum = 0
	maximum = 193
Injected packet rate average = 0.0128906
	minimum = 0.001 (at node 7)
	maximum = 0.024 (at node 17)
Accepted packet rate average = 0.0102813
	minimum = 0 (at node 7)
	maximum = 0.023 (at node 2)
Injected flit rate average = 0.252328
	minimum = 0.016 (at node 7)
	maximum = 0.48 (at node 17)
Accepted flit rate average= 0.217062
	minimum = 0 (at node 7)
	maximum = 0.479 (at node 10)
Injected packet length average = 19.5745
Accepted packet length average = 21.1125
Total in-flight flits = 2608 (0 measured)
latency change    = 1
throughput change = 1
Class 0:
Packet latency average = 243.979
	minimum = 25
	maximum = 1454
Network latency average = 168.302
	minimum = 25
	maximum = 1290
Slowest packet = 353
Flit latency average = 106.796
	minimum = 6
	maximum = 1271
Slowest flit = 7077
Fragmentation average = 67.4276
	minimum = 0
	maximum = 203
Injected packet rate average = 0.0119922
	minimum = 0.0005 (at node 7)
	maximum = 0.02 (at node 0)
Accepted packet rate average = 0.0107969
	minimum = 0 (at node 7)
	maximum = 0.02 (at node 0)
Injected flit rate average = 0.237031
	minimum = 0.008 (at node 7)
	maximum = 0.4 (at node 0)
Accepted flit rate average= 0.220594
	minimum = 0 (at node 7)
	maximum = 0.4 (at node 0)
Injected packet length average = 19.7655
Accepted packet length average = 20.4313
Total in-flight flits = 2464 (0 measured)
latency change    = 0.375762
throughput change = 0.0160079
Average latency for class 0 exceeded 500 cycles. Aborting simulation.
Too many sample periods needed to converge
Simulation unstable, ending ...
Total run time 1.12174
