BEGIN Configuration File: ../../IL2236_project/verify/figure2/MAD/mesh88_lat
// $Id$

// Copyright (c) 2007-2015, Trustees of The Leland Stanford Junior University
// All rights reserved.
//
// Redistribution and use in source and binary forms, with or without
// modification, are permitted provided that the following conditions are met:
//
// Redistributions of source code must retain the above copyright notice, this
// list of conditions and the following disclaimer.
// Redistributions in binary form must reproduce the above copyright notice,
// this list of conditions and the following disclaimer in the documentation
// and/or other materials provided with the distribution.
//
// THIS SOFTWARE IS PROVIDED BY THE COPYRIGHT HOLDERS AND CONTRIBUTORS "AS IS"
// AND ANY EXPRESS OR IMPLIED WARRANTIES, INCLUDING, BUT NOT LIMITED TO, THE
// IMPLIED WARRANTIES OF MERCHANTABILITY AND FITNESS FOR A PARTICULAR PURPOSE
// ARE DISCLAIMED. IN NO EVENT SHALL THE COPYRIGHT OWNER OR CONTRIBUTORS BE
// LIABLE FOR ANY DIRECT, INDIRECT, INCIDENTAL, SPECIAL, EXEMPLARY, OR
// CONSEQUENTIAL DAMAGES (INCLUDING, BUT NOT LIMITED TO, PROCUREMENT OF
// SUBSTITUTE GOODS OR SERVICES; LOSS OF USE, DATA, OR PROFITS; OR BUSINESS
// INTERRUPTION) HOWEVER CAUSED AND ON ANY THEORY OF LIABILITY, WHETHER IN
// CONTRACT, STRICT LIABILITY, OR TORT (INCLUDING NEGLIGENCE OR OTHERWISE)
// ARISING IN ANY WAY OUT OF THE USE OF THIS SOFTWARE, EVEN IF ADVISED OF THE
// POSSIBILITY OF SUCH DAMAGE.

//8X8 mesh with 20 flits per packet under injection mode
//injection rate here is packet per cycle, NOT flit per cycle

// Topology

topology = mesh;
k = 8;
n = 2;

// Routing
routing_function = min_adapt;

// Flow control
num_vcs     = 8;
vc_buf_size = 8;
wait_for_tail_credit = 1;

// Router architecture
vc_allocator = islip;
sw_allocator = islip;
alloc_iters  = 1;

credit_delay   = 2;
routing_delay  = 0;
vc_alloc_delay = 1;
sw_alloc_delay = 1;

input_speedup     = 2;
output_speedup    = 1;
internal_speedup  = 1.0;


// Traffic
traffic = transpose;
packet_size = 20;


// Simulation
sim_type = latency;

injection_rate = .0190;


END Configuration File: ../../IL2236_project/verify/figure2/MAD/mesh88_lat
Class 0:
Packet latency average = 188.591
	minimum = 25
	maximum = 842
Network latency average = 146.329
	minimum = 25
	maximum = 807
Slowest packet = 166
Flit latency average = 90.6545
	minimum = 6
	maximum = 788
Slowest flit = 3339
Fragmentation average = 64.805
	minimum = 0
	maximum = 199
Injected packet rate average = 0.0135625
	minimum = 0.002 (at node 56)
	maximum = 0.028 (at node 9)
Accepted packet rate average = 0.0105781
	minimum = 0.001 (at node 6)
	maximum = 0.028 (at node 9)
Injected flit rate average = 0.264437
	minimum = 0.036 (at node 56)
	maximum = 0.56 (at node 9)
Accepted flit rate average= 0.224109
	minimum = 0.02 (at node 6)
	maximum = 0.56 (at node 9)
Injected packet length average = 19.4977
Accepted packet length average = 21.1861
Total in-flight flits = 3017 (0 measured)
latency change    = 1
throughput change = 1
Class 0:
Packet latency average = 309.277
	minimum = 25
	maximum = 1598
Network latency average = 182.872
	minimum = 25
	maximum = 1557
Slowest packet = 247
Flit latency average = 117.159
	minimum = 6
	maximum = 1534
Slowest flit = 6559
Fragmentation average = 72.3101
	minimum = 0
	maximum = 214
Injected packet rate average = 0.0127422
	minimum = 0.001 (at node 56)
	maximum = 0.0235 (at node 8)
Accepted packet rate average = 0.0113125
	minimum = 0.0005 (at node 6)
	maximum = 0.0225 (at node 1)
Injected flit rate average = 0.251625
	minimum = 0.018 (at node 56)
	maximum = 0.4605 (at node 8)
Accepted flit rate average= 0.231969
	minimum = 0.01 (at node 6)
	maximum = 0.4535 (at node 1)
Injected packet length average = 19.7474
Accepted packet length average = 20.5055
Total in-flight flits = 2928 (0 measured)
latency change    = 0.39022
throughput change = 0.0338812
Average latency for class 0 exceeded 500 cycles. Aborting simulation.
Too many sample periods needed to converge
Simulation unstable, ending ...
Total run time 1.17098
