BEGIN Configuration File: ../../IL2236_project/verify/figure1/MAD/mesh88_lat
// $Id$

// Copyright (c) 2007-2015, Trustees of The Leland Stanford Junior University
// All rights reserved.
//
// Redistribution and use in source and binary forms, with or without
// modification, are permitted provided that the following conditions are met:
//
// Redistributions of source code must retain the above copyright notice, this
// list of conditions and the following disclaimer.
// Redistributions in binary form must reproduce the above copyright notice,
// this list of conditions and the following disclaimer in the documentation
// and/or other materials provided with the distribution.
//
// THIS SOFTWARE IS PROVIDED BY THE COPYRIGHT HOLDERS AND CONTRIBUTORS "AS IS"
// AND ANY EXPRESS OR IMPLIED WARRANTIES, INCLUDING, BUT NOT LIMITED TO, THE
// IMPLIED WARRANTIES OF MERCHANTABILITY AND FITNESS FOR A PARTICULAR PURPOSE
// ARE DISCLAIMED. IN NO EVENT SHALL THE COPYRIGHT OWNER OR CONTRIBUTORS BE
// LIABLE FOR ANY DIRECT, INDIRECT, INCIDENTAL, SPECIAL, EXEMPLARY, OR
// CONSEQUENTIAL DAMAGES (INCLUDING, BUT NOT LIMITED TO, PROCUREMENT OF
// SUBSTITUTE GOODS OR SERVICES; LOSS OF USE, DATA, OR PROFITS; OR BUSINESS
// INTERRUPTION) HOWEVER CAUSED AND ON ANY THEORY OF LIABILITY, WHETHER IN
// CONTRACT, STRICT LIABILITY, OR TORT (INCLUDING NEGLIGENCE OR OTHERWISE)
// ARISING IN ANY WAY OUT OF THE USE OF THIS SOFTWARE, EVEN IF ADVISED OF THE
// POSSIBILITY OF SUCH DAMAGE.

//8X8 mesh with 20 flits per packet under injection mode
//injection rate here is packet per cycle, NOT flit per cycle

// Topology

topology = mesh;
k = 8;
n = 2;

// Routing
routing_function = min_adapt;

// Flow control
num_vcs     = 8;
vc_buf_size = 8;
wait_for_tail_credit = 1;

// Router architecture
vc_allocator = islip;
sw_allocator = islip;
alloc_iters  = 1;

credit_delay   = 2;
routing_delay  = 0;
vc_alloc_delay = 1;
sw_alloc_delay = 1;

input_speedup     = 2;
output_speedup    = 1;
internal_speedup  = 1.0;


// Traffic
traffic = uniform;
packet_size = 20;


// Simulation
sim_type = latency;

injection_rate = .0005;


END Configuration File: ../../IL2236_project/verify/figure1/MAD/mesh88_lat
Class 0:
Packet latency average = 47
	minimum = 33
	maximum = 65
Network latency average = 47
	minimum = 33
	maximum = 65
Slowest packet = 2
Flit latency average = 27.7104
	minimum = 6
	maximum = 46
Slowest flit = 40
Fragmentation average = 0
	minimum = 0
	maximum = 0
Injected packet rate average = 0.000359375
	minimum = 0 (at node 1)
	maximum = 0.002 (at node 2)
Accepted packet rate average = 0.00034375
	minimum = 0 (at node 0)
	maximum = 0.003 (at node 46)
Injected flit rate average = 0.007
	minimum = 0 (at node 1)
	maximum = 0.04 (at node 9)
Accepted flit rate average= 0.00690625
	minimum = 0 (at node 0)
	maximum = 0.06 (at node 46)
Injected packet length average = 19.4783
Accepted packet length average = 20.0909
Total in-flight flits = 18 (0 measured)
latency change    = 1
throughput change = 1
Class 0:
Packet latency average = 47.2727
	minimum = 25
	maximum = 65
Network latency average = 47.2727
	minimum = 25
	maximum = 65
Slowest packet = 2
Flit latency average = 28.1964
	minimum = 6
	maximum = 46
Slowest flit = 40
Fragmentation average = 0
	minimum = 0
	maximum = 0
Injected packet rate average = 0.000429688
	minimum = 0 (at node 1)
	maximum = 0.0015 (at node 2)
Accepted packet rate average = 0.000429688
	minimum = 0 (at node 0)
	maximum = 0.0015 (at node 2)
Injected flit rate average = 0.00859375
	minimum = 0 (at node 1)
	maximum = 0.03 (at node 2)
Accepted flit rate average= 0.00859375
	minimum = 0 (at node 0)
	maximum = 0.03 (at node 2)
Injected packet length average = 20
Accepted packet length average = 20
Total in-flight flits = 0 (0 measured)
latency change    = 0.00576923
throughput change = 0.196364
Class 0:
Packet latency average = 49.2258
	minimum = 29
	maximum = 78
Network latency average = 49.2258
	minimum = 29
	maximum = 78
Slowest packet = 73
Flit latency average = 29.8952
	minimum = 10
	maximum = 59
Slowest flit = 1479
Fragmentation average = 0.419355
	minimum = 0
	maximum = 8
Injected packet rate average = 0.000484375
	minimum = 0 (at node 0)
	maximum = 0.004 (at node 1)
Accepted packet rate average = 0.000484375
	minimum = 0 (at node 3)
	maximum = 0.003 (at node 18)
Injected flit rate average = 0.0096875
	minimum = 0 (at node 0)
	maximum = 0.08 (at node 1)
Accepted flit rate average= 0.0096875
	minimum = 0 (at node 3)
	maximum = 0.06 (at node 18)
Injected packet length average = 20
Accepted packet length average = 20
Total in-flight flits = 0 (0 measured)
latency change    = 0.0396759
throughput change = 0.112903
Warmed up ...Time used is 3000 cycles
Class 0:
Packet latency average = 47.0323
	minimum = 33
	maximum = 77
Network latency average = 46.8065
	minimum = 33
	maximum = 77
Slowest packet = 114
Flit latency average = 27.8065
	minimum = 14
	maximum = 58
Slowest flit = 2280
Fragmentation average = 0
	minimum = 0
	maximum = 0
Injected packet rate average = 0.0005
	minimum = 0 (at node 0)
	maximum = 0.004 (at node 43)
Accepted packet rate average = 0.000484375
	minimum = 0 (at node 3)
	maximum = 0.003 (at node 57)
Injected flit rate average = 0.00992188
	minimum = 0 (at node 0)
	maximum = 0.08 (at node 43)
Accepted flit rate average= 0.0096875
	minimum = 0 (at node 3)
	maximum = 0.06 (at node 57)
Injected packet length average = 19.8438
Accepted packet length average = 20
Total in-flight flits = 20 (20 measured)
latency change    = 0.0466392
throughput change = 0
Class 0:
Packet latency average = 46.2909
	minimum = 29
	maximum = 77
Network latency average = 46.1636
	minimum = 29
	maximum = 77
Slowest packet = 114
Flit latency average = 27.1636
	minimum = 10
	maximum = 58
Slowest flit = 2280
Fragmentation average = 0
	minimum = 0
	maximum = 0
Injected packet rate average = 0.0004375
	minimum = 0 (at node 0)
	maximum = 0.0025 (at node 43)
Accepted packet rate average = 0.000429688
	minimum = 0 (at node 3)
	maximum = 0.002 (at node 21)
Injected flit rate average = 0.00865625
	minimum = 0 (at node 0)
	maximum = 0.05 (at node 43)
Accepted flit rate average= 0.00859375
	minimum = 0 (at node 3)
	maximum = 0.04 (at node 21)
Injected packet length average = 19.7857
Accepted packet length average = 20
Total in-flight flits = 20 (20 measured)
latency change    = 0.016015
throughput change = 0.127273
Class 0:
Packet latency average = 46.4458
	minimum = 29
	maximum = 77
Network latency average = 46.3614
	minimum = 29
	maximum = 77
Slowest packet = 114
Flit latency average = 27.2992
	minimum = 10
	maximum = 58
Slowest flit = 2280
Fragmentation average = 0
	minimum = 0
	maximum = 0
Injected packet rate average = 0.000442708
	minimum = 0 (at node 0)
	maximum = 0.002 (at node 43)
Accepted packet rate average = 0.000432292
	minimum = 0 (at node 4)
	maximum = 0.00166667 (at node 57)
Injected flit rate average = 0.00885417
	minimum = 0 (at node 0)
	maximum = 0.04 (at node 43)
Accepted flit rate average= 0.00875521
	minimum = 0 (at node 4)
	maximum = 0.0333333 (at node 57)
Injected packet length average = 20
Accepted packet length average = 20.253
Total in-flight flits = 19 (19 measured)
latency change    = 0.00333451
throughput change = 0.0184414
Class 0:
Packet latency average = 46.3217
	minimum = 25
	maximum = 77
Network latency average = 46.1565
	minimum = 25
	maximum = 77
Slowest packet = 114
Flit latency average = 27.087
	minimum = 6
	maximum = 58
Slowest flit = 2280
Fragmentation average = 0.104348
	minimum = 0
	maximum = 6
Injected packet rate average = 0.000449219
	minimum = 0 (at node 0)
	maximum = 0.0015 (at node 5)
Accepted packet rate average = 0.000449219
	minimum = 0 (at node 8)
	maximum = 0.00125 (at node 57)
Injected flit rate average = 0.00898437
	minimum = 0 (at node 0)
	maximum = 0.03 (at node 5)
Accepted flit rate average= 0.00898437
	minimum = 0 (at node 8)
	maximum = 0.025 (at node 57)
Injected packet length average = 20
Accepted packet length average = 20
Total in-flight flits = 0 (0 measured)
latency change    = 0.00267788
throughput change = 0.0255072
Class 0:
Packet latency average = 45.9933
	minimum = 25
	maximum = 77
Network latency average = 45.64
	minimum = 25
	maximum = 77
Slowest packet = 114
Flit latency average = 26.5324
	minimum = 6
	maximum = 58
Slowest flit = 2280
Fragmentation average = 0.08
	minimum = 0
	maximum = 6
Injected packet rate average = 0.000475
	minimum = 0 (at node 0)
	maximum = 0.0014 (at node 22)
Accepted packet rate average = 0.00046875
	minimum = 0 (at node 13)
	maximum = 0.0014 (at node 39)
Injected flit rate average = 0.00944062
	minimum = 0 (at node 0)
	maximum = 0.028 (at node 22)
Accepted flit rate average= 0.00941563
	minimum = 0 (at node 13)
	maximum = 0.028 (at node 39)
Injected packet length average = 19.875
Accepted packet length average = 20.0867
Total in-flight flits = 27 (27 measured)
latency change    = 0.00714029
throughput change = 0.0458015
Draining all recorded packets ...
Draining remaining packets ...
Time taken is 8094 cycles
====== Overall Traffic Statistics ======
====== Traffic class 0 ======
Packet latency average = 45.9539 (1 samples)
	minimum = 25 (1 samples)
	maximum = 77 (1 samples)
Network latency average = 45.6053 (1 samples)
	minimum = 25 (1 samples)
	maximum = 77 (1 samples)
Flit latency average = 26.7806 (1 samples)
	minimum = 6 (1 samples)
	maximum = 58 (1 samples)
Fragmentation average = 0.0789474 (1 samples)
	minimum = 0 (1 samples)
	maximum = 6 (1 samples)
Injected packet rate average = 0.000475 (1 samples)
	minimum = 0 (1 samples)
	maximum = 0.0014 (1 samples)
Accepted packet rate average = 0.00046875 (1 samples)
	minimum = 0 (1 samples)
	maximum = 0.0014 (1 samples)
Injected flit rate average = 0.00944062 (1 samples)
	minimum = 0 (1 samples)
	maximum = 0.028 (1 samples)
Accepted flit rate average = 0.00941563 (1 samples)
	minimum = 0 (1 samples)
	maximum = 0.028 (1 samples)
Injected packet size average = 19.875 (1 samples)
Accepted packet size average = 20.0867 (1 samples)
Hops average = 6.04605 (1 samples)
Total run time 0.7097
