BEGIN Configuration File: ../../IL2236_project/verify/figure1/MAD/mesh88_lat
// $Id$

// Copyright (c) 2007-2015, Trustees of The Leland Stanford Junior University
// All rights reserved.
//
// Redistribution and use in source and binary forms, with or without
// modification, are permitted provided that the following conditions are met:
//
// Redistributions of source code must retain the above copyright notice, this
// list of conditions and the following disclaimer.
// Redistributions in binary form must reproduce the above copyright notice,
// this list of conditions and the following disclaimer in the documentation
// and/or other materials provided with the distribution.
//
// THIS SOFTWARE IS PROVIDED BY THE COPYRIGHT HOLDERS AND CONTRIBUTORS "AS IS"
// AND ANY EXPRESS OR IMPLIED WARRANTIES, INCLUDING, BUT NOT LIMITED TO, THE
// IMPLIED WARRANTIES OF MERCHANTABILITY AND FITNESS FOR A PARTICULAR PURPOSE
// ARE DISCLAIMED. IN NO EVENT SHALL THE COPYRIGHT OWNER OR CONTRIBUTORS BE
// LIABLE FOR ANY DIRECT, INDIRECT, INCIDENTAL, SPECIAL, EXEMPLARY, OR
// CONSEQUENTIAL DAMAGES (INCLUDING, BUT NOT LIMITED TO, PROCUREMENT OF
// SUBSTITUTE GOODS OR SERVICES; LOSS OF USE, DATA, OR PROFITS; OR BUSINESS
// INTERRUPTION) HOWEVER CAUSED AND ON ANY THEORY OF LIABILITY, WHETHER IN
// CONTRACT, STRICT LIABILITY, OR TORT (INCLUDING NEGLIGENCE OR OTHERWISE)
// ARISING IN ANY WAY OUT OF THE USE OF THIS SOFTWARE, EVEN IF ADVISED OF THE
// POSSIBILITY OF SUCH DAMAGE.

//8X8 mesh with 20 flits per packet under injection mode
//injection rate here is packet per cycle, NOT flit per cycle

// Topology

topology = mesh;
k = 8;
n = 2;

// Routing
routing_function = min_adapt;

// Flow control
num_vcs     = 8;
vc_buf_size = 8;
wait_for_tail_credit = 1;

// Router architecture
vc_allocator = islip;
sw_allocator = islip;
alloc_iters  = 1;

credit_delay   = 2;
routing_delay  = 0;
vc_alloc_delay = 1;
sw_alloc_delay = 1;

input_speedup     = 2;
output_speedup    = 1;
internal_speedup  = 1.0;


// Traffic
traffic = uniform;
packet_size = 20;


// Simulation
sim_type = latency;

injection_rate = .0010;


END Configuration File: ../../IL2236_project/verify/figure1/MAD/mesh88_lat
Class 0:
Packet latency average = 47.84
	minimum = 25
	maximum = 80
Network latency average = 47.84
	minimum = 25
	maximum = 80
Slowest packet = 32
Flit latency average = 28.288
	minimum = 6
	maximum = 61
Slowest flit = 640
Fragmentation average = 0.94
	minimum = 0
	maximum = 15
Injected packet rate average = 0.0008125
	minimum = 0 (at node 1)
	maximum = 0.003 (at node 29)
Accepted packet rate average = 0.00078125
	minimum = 0 (at node 0)
	maximum = 0.003 (at node 2)
Injected flit rate average = 0.0160625
	minimum = 0 (at node 1)
	maximum = 0.06 (at node 29)
Accepted flit rate average= 0.015625
	minimum = 0 (at node 0)
	maximum = 0.06 (at node 2)
Injected packet length average = 19.7692
Accepted packet length average = 20
Total in-flight flits = 40 (0 measured)
latency change    = 1
throughput change = 1
Class 0:
Packet latency average = 48.4404
	minimum = 25
	maximum = 80
Network latency average = 48.4404
	minimum = 25
	maximum = 80
Slowest packet = 32
Flit latency average = 29.0872
	minimum = 6
	maximum = 61
Slowest flit = 640
Fragmentation average = 0.743119
	minimum = 0
	maximum = 15
Injected packet rate average = 0.000859375
	minimum = 0 (at node 1)
	maximum = 0.002 (at node 6)
Accepted packet rate average = 0.000851562
	minimum = 0 (at node 20)
	maximum = 0.0035 (at node 18)
Injected flit rate average = 0.0171875
	minimum = 0 (at node 1)
	maximum = 0.04 (at node 6)
Accepted flit rate average= 0.0171172
	minimum = 0 (at node 20)
	maximum = 0.07 (at node 18)
Injected packet length average = 20
Accepted packet length average = 20.1009
Total in-flight flits = 9 (0 measured)
latency change    = 0.0123939
throughput change = 0.0871748
Class 0:
Packet latency average = 47.8235
	minimum = 29
	maximum = 76
Network latency average = 47.4118
	minimum = 29
	maximum = 73
Slowest packet = 125
Flit latency average = 28.212
	minimum = 10
	maximum = 54
Slowest flit = 2500
Fragmentation average = 0.176471
	minimum = 0
	maximum = 6
Injected packet rate average = 0.0010625
	minimum = 0 (at node 4)
	maximum = 0.005 (at node 14)
Accepted packet rate average = 0.0010625
	minimum = 0 (at node 4)
	maximum = 0.004 (at node 12)
Injected flit rate average = 0.0212344
	minimum = 0 (at node 4)
	maximum = 0.1 (at node 14)
Accepted flit rate average= 0.0210781
	minimum = 0 (at node 4)
	maximum = 0.08 (at node 12)
Injected packet length average = 19.9853
Accepted packet length average = 19.8382
Total in-flight flits = 20 (0 measured)
latency change    = 0.0128982
throughput change = 0.187917
Warmed up ...Time used is 3000 cycles
Class 0:
Packet latency average = 49.7377
	minimum = 29
	maximum = 85
Network latency average = 49.3443
	minimum = 29
	maximum = 85
Slowest packet = 233
Flit latency average = 29.6073
	minimum = 10
	maximum = 66
Slowest flit = 4660
Fragmentation average = 1.16393
	minimum = 0
	maximum = 19
Injected packet rate average = 0.00096875
	minimum = 0 (at node 0)
	maximum = 0.006 (at node 47)
Accepted packet rate average = 0.00096875
	minimum = 0 (at node 0)
	maximum = 0.004 (at node 39)
Injected flit rate average = 0.0193125
	minimum = 0 (at node 0)
	maximum = 0.12 (at node 47)
Accepted flit rate average= 0.019375
	minimum = 0 (at node 0)
	maximum = 0.08 (at node 39)
Injected packet length average = 19.9355
Accepted packet length average = 20
Total in-flight flits = 20 (20 measured)
latency change    = 0.0384854
throughput change = 0.0879032
Class 0:
Packet latency average = 48.6486
	minimum = 29
	maximum = 85
Network latency average = 48.1081
	minimum = 29
	maximum = 85
Slowest packet = 233
Flit latency average = 28.6933
	minimum = 10
	maximum = 66
Slowest flit = 4660
Fragmentation average = 0.675676
	minimum = 0
	maximum = 19
Injected packet rate average = 0.000890625
	minimum = 0 (at node 0)
	maximum = 0.004 (at node 47)
Accepted packet rate average = 0.000875
	minimum = 0 (at node 11)
	maximum = 0.0025 (at node 56)
Injected flit rate average = 0.0176172
	minimum = 0 (at node 0)
	maximum = 0.073 (at node 47)
Accepted flit rate average= 0.0175
	minimum = 0 (at node 11)
	maximum = 0.05 (at node 56)
Injected packet length average = 19.7807
Accepted packet length average = 20
Total in-flight flits = 60 (60 measured)
latency change    = 0.0223862
throughput change = 0.107143
Class 0:
Packet latency average = 47.7857
	minimum = 25
	maximum = 85
Network latency average = 47.3333
	minimum = 25
	maximum = 85
Slowest packet = 233
Flit latency average = 27.8721
	minimum = 6
	maximum = 66
Slowest flit = 4660
Fragmentation average = 0.5
	minimum = 0
	maximum = 19
Injected packet rate average = 0.000901042
	minimum = 0 (at node 0)
	maximum = 0.003 (at node 47)
Accepted packet rate average = 0.000880208
	minimum = 0 (at node 11)
	maximum = 0.00166667 (at node 5)
Injected flit rate average = 0.0179896
	minimum = 0 (at node 0)
	maximum = 0.06 (at node 47)
Accepted flit rate average= 0.017875
	minimum = 0 (at node 11)
	maximum = 0.0396667 (at node 39)
Injected packet length average = 19.9653
Accepted packet length average = 20.3077
Total in-flight flits = 48 (48 measured)
latency change    = 0.0180584
throughput change = 0.020979
Class 0:
Packet latency average = 47.6111
	minimum = 25
	maximum = 85
Network latency average = 47.0256
	minimum = 25
	maximum = 85
Slowest packet = 233
Flit latency average = 27.7929
	minimum = 6
	maximum = 66
Slowest flit = 4660
Fragmentation average = 0.358974
	minimum = 0
	maximum = 19
Injected packet rate average = 0.000925781
	minimum = 0 (at node 18)
	maximum = 0.0025 (at node 43)
Accepted packet rate average = 0.000917969
	minimum = 0 (at node 11)
	maximum = 0.002 (at node 39)
Injected flit rate average = 0.0184219
	minimum = 0 (at node 18)
	maximum = 0.05 (at node 43)
Accepted flit rate average= 0.0184258
	minimum = 0 (at node 11)
	maximum = 0.04 (at node 39)
Injected packet length average = 19.8987
Accepted packet length average = 20.0723
Total in-flight flits = 43 (43 measured)
latency change    = 0.00366728
throughput change = 0.0298919
Class 0:
Packet latency average = 47.5903
	minimum = 25
	maximum = 95
Network latency average = 47.0258
	minimum = 25
	maximum = 95
Slowest packet = 419
Flit latency average = 27.7945
	minimum = 6
	maximum = 76
Slowest flit = 8380
Fragmentation average = 0.329032
	minimum = 0
	maximum = 19
Injected packet rate average = 0.000975
	minimum = 0.0002 (at node 1)
	maximum = 0.0022 (at node 5)
Accepted packet rate average = 0.000971875
	minimum = 0.0002 (at node 11)
	maximum = 0.0018 (at node 34)
Injected flit rate average = 0.0194437
	minimum = 0.004 (at node 1)
	maximum = 0.044 (at node 5)
Accepted flit rate average= 0.0194531
	minimum = 0.004 (at node 11)
	maximum = 0.036 (at node 34)
Injected packet length average = 19.9423
Accepted packet length average = 20.0161
Total in-flight flits = 35 (35 measured)
latency change    = 0.000436823
throughput change = 0.0528112
Class 0:
Packet latency average = 47.283
	minimum = 25
	maximum = 95
Network latency average = 46.8113
	minimum = 25
	maximum = 95
Slowest packet = 419
Flit latency average = 27.5244
	minimum = 6
	maximum = 76
Slowest flit = 8380
Fragmentation average = 0.469003
	minimum = 0
	maximum = 19
Injected packet rate average = 0.000973958
	minimum = 0.000166667 (at node 40)
	maximum = 0.00216667 (at node 43)
Accepted packet rate average = 0.00096875
	minimum = 0.000333333 (at node 58)
	maximum = 0.002 (at node 34)
Injected flit rate average = 0.0194557
	minimum = 0.00333333 (at node 40)
	maximum = 0.0433333 (at node 43)
Accepted flit rate average= 0.0194453
	minimum = 0.00666667 (at node 58)
	maximum = 0.04 (at node 34)
Injected packet length average = 19.9759
Accepted packet length average = 20.0726
Total in-flight flits = 33 (33 measured)
latency change    = 0.00649924
throughput change = 0.000401768
Class 0:
Packet latency average = 47.2824
	minimum = 25
	maximum = 95
Network latency average = 46.8706
	minimum = 25
	maximum = 95
Slowest packet = 419
Flit latency average = 27.6278
	minimum = 6
	maximum = 76
Slowest flit = 8380
Fragmentation average = 0.432941
	minimum = 0
	maximum = 19
Injected packet rate average = 0.000964286
	minimum = 0.000285714 (at node 1)
	maximum = 0.00185714 (at node 43)
Accepted packet rate average = 0.000950893
	minimum = 0.000428571 (at node 11)
	maximum = 0.00171429 (at node 34)
Injected flit rate average = 0.019221
	minimum = 0.00571429 (at node 1)
	maximum = 0.0371429 (at node 43)
Accepted flit rate average= 0.0191473
	minimum = 0.00857143 (at node 11)
	maximum = 0.0342857 (at node 34)
Injected packet length average = 19.9329
Accepted packet length average = 20.1362
Total in-flight flits = 82 (82 measured)
latency change    = 1.4084e-05
throughput change = 0.0155631
Draining all recorded packets ...
Draining remaining packets ...
Time taken is 10093 cycles
====== Overall Traffic Statistics ======
====== Traffic class 0 ======
Packet latency average = 47.4074 (1 samples)
	minimum = 25 (1 samples)
	maximum = 95 (1 samples)
Network latency average = 47.0023 (1 samples)
	minimum = 25 (1 samples)
	maximum = 95 (1 samples)
Flit latency average = 27.5933 (1 samples)
	minimum = 6 (1 samples)
	maximum = 76 (1 samples)
Fragmentation average = 0.486111 (1 samples)
	minimum = 0 (1 samples)
	maximum = 19 (1 samples)
Injected packet rate average = 0.000964286 (1 samples)
	minimum = 0.000285714 (1 samples)
	maximum = 0.00185714 (1 samples)
Accepted packet rate average = 0.000950893 (1 samples)
	minimum = 0.000428571 (1 samples)
	maximum = 0.00171429 (1 samples)
Injected flit rate average = 0.019221 (1 samples)
	minimum = 0.00571429 (1 samples)
	maximum = 0.0371429 (1 samples)
Accepted flit rate average = 0.0191473 (1 samples)
	minimum = 0.00857143 (1 samples)
	maximum = 0.0342857 (1 samples)
Injected packet size average = 19.9329 (1 samples)
Accepted packet size average = 20.1362 (1 samples)
Hops average = 6.22222 (1 samples)
Total run time 1.06629
