BEGIN Configuration File: ../../IL2236_project/verify/figure1/MAD/mesh88_lat
// $Id$

// Copyright (c) 2007-2015, Trustees of The Leland Stanford Junior University
// All rights reserved.
//
// Redistribution and use in source and binary forms, with or without
// modification, are permitted provided that the following conditions are met:
//
// Redistributions of source code must retain the above copyright notice, this
// list of conditions and the following disclaimer.
// Redistributions in binary form must reproduce the above copyright notice,
// this list of conditions and the following disclaimer in the documentation
// and/or other materials provided with the distribution.
//
// THIS SOFTWARE IS PROVIDED BY THE COPYRIGHT HOLDERS AND CONTRIBUTORS "AS IS"
// AND ANY EXPRESS OR IMPLIED WARRANTIES, INCLUDING, BUT NOT LIMITED TO, THE
// IMPLIED WARRANTIES OF MERCHANTABILITY AND FITNESS FOR A PARTICULAR PURPOSE
// ARE DISCLAIMED. IN NO EVENT SHALL THE COPYRIGHT OWNER OR CONTRIBUTORS BE
// LIABLE FOR ANY DIRECT, INDIRECT, INCIDENTAL, SPECIAL, EXEMPLARY, OR
// CONSEQUENTIAL DAMAGES (INCLUDING, BUT NOT LIMITED TO, PROCUREMENT OF
// SUBSTITUTE GOODS OR SERVICES; LOSS OF USE, DATA, OR PROFITS; OR BUSINESS
// INTERRUPTION) HOWEVER CAUSED AND ON ANY THEORY OF LIABILITY, WHETHER IN
// CONTRACT, STRICT LIABILITY, OR TORT (INCLUDING NEGLIGENCE OR OTHERWISE)
// ARISING IN ANY WAY OUT OF THE USE OF THIS SOFTWARE, EVEN IF ADVISED OF THE
// POSSIBILITY OF SUCH DAMAGE.

//8X8 mesh with 20 flits per packet under injection mode
//injection rate here is packet per cycle, NOT flit per cycle

// Topology

topology = mesh;
k = 8;
n = 2;

// Routing
routing_function = min_adapt;

// Flow control
num_vcs     = 8;
vc_buf_size = 8;
wait_for_tail_credit = 1;

// Router architecture
vc_allocator = islip;
sw_allocator = islip;
alloc_iters  = 1;

credit_delay   = 2;
routing_delay  = 0;
vc_alloc_delay = 1;
sw_alloc_delay = 1;

input_speedup     = 2;
output_speedup    = 1;
internal_speedup  = 1.0;


// Traffic
traffic = uniform;
packet_size = 20;


// Simulation
sim_type = latency;

injection_rate = .0025;


END Configuration File: ../../IL2236_project/verify/figure1/MAD/mesh88_lat
Class 0:
Packet latency average = 53.5704
	minimum = 25
	maximum = 111
Network latency average = 52.6901
	minimum = 25
	maximum = 111
Slowest packet = 96
Flit latency average = 32.4046
	minimum = 6
	maximum = 92
Slowest flit = 1939
Fragmentation average = 1.79577
	minimum = 0
	maximum = 19
Injected packet rate average = 0.00228125
	minimum = 0 (at node 18)
	maximum = 0.007 (at node 47)
Accepted packet rate average = 0.00221875
	minimum = 0 (at node 20)
	maximum = 0.007 (at node 18)
Injected flit rate average = 0.04525
	minimum = 0 (at node 18)
	maximum = 0.14 (at node 47)
Accepted flit rate average= 0.0444531
	minimum = 0 (at node 20)
	maximum = 0.14 (at node 18)
Injected packet length average = 19.8356
Accepted packet length average = 20.0352
Total in-flight flits = 75 (0 measured)
latency change    = 1
throughput change = 1
Class 0:
Packet latency average = 52.6426
	minimum = 25
	maximum = 111
Network latency average = 51.7801
	minimum = 25
	maximum = 111
Slowest packet = 96
Flit latency average = 31.6681
	minimum = 6
	maximum = 92
Slowest flit = 1939
Fragmentation average = 1.60137
	minimum = 0
	maximum = 32
Injected packet rate average = 0.00233594
	minimum = 0.0005 (at node 25)
	maximum = 0.006 (at node 47)
Accepted packet rate average = 0.00227344
	minimum = 0 (at node 29)
	maximum = 0.0055 (at node 18)
Injected flit rate average = 0.0465078
	minimum = 0.01 (at node 25)
	maximum = 0.1155 (at node 47)
Accepted flit rate average= 0.0458047
	minimum = 0 (at node 29)
	maximum = 0.11 (at node 18)
Injected packet length average = 19.9097
Accepted packet length average = 20.1478
Total in-flight flits = 117 (0 measured)
latency change    = 0.0176247
throughput change = 0.0295071
Class 0:
Packet latency average = 49.7716
	minimum = 25
	maximum = 96
Network latency average = 49.4198
	minimum = 25
	maximum = 96
Slowest packet = 407
Flit latency average = 29.4226
	minimum = 6
	maximum = 77
Slowest flit = 8156
Fragmentation average = 1.43827
	minimum = 0
	maximum = 18
Injected packet rate average = 0.00251563
	minimum = 0 (at node 8)
	maximum = 0.007 (at node 26)
Accepted packet rate average = 0.00253125
	minimum = 0 (at node 11)
	maximum = 0.007 (at node 53)
Injected flit rate average = 0.0503906
	minimum = 0 (at node 8)
	maximum = 0.14 (at node 26)
Accepted flit rate average= 0.0500937
	minimum = 0 (at node 11)
	maximum = 0.14 (at node 53)
Injected packet length average = 20.0311
Accepted packet length average = 19.7901
Total in-flight flits = 131 (0 measured)
latency change    = 0.0576836
throughput change = 0.0856207
Warmed up ...Time used is 3000 cycles
Class 0:
Packet latency average = 51.2919
	minimum = 25
	maximum = 121
Network latency average = 50.6149
	minimum = 25
	maximum = 120
Slowest packet = 582
Flit latency average = 30.3186
	minimum = 6
	maximum = 101
Slowest flit = 11640
Fragmentation average = 1.74534
	minimum = 0
	maximum = 18
Injected packet rate average = 0.00265625
	minimum = 0 (at node 29)
	maximum = 0.006 (at node 16)
Accepted packet rate average = 0.002625
	minimum = 0 (at node 22)
	maximum = 0.007 (at node 17)
Injected flit rate average = 0.0533594
	minimum = 0 (at node 41)
	maximum = 0.12 (at node 16)
Accepted flit rate average= 0.0529219
	minimum = 0 (at node 22)
	maximum = 0.14 (at node 17)
Injected packet length average = 20.0882
Accepted packet length average = 20.1607
Total in-flight flits = 144 (144 measured)
latency change    = 0.0296405
throughput change = 0.0534396
Class 0:
Packet latency average = 50.4917
	minimum = 25
	maximum = 121
Network latency average = 49.8206
	minimum = 25
	maximum = 120
Slowest packet = 582
Flit latency average = 29.7974
	minimum = 6
	maximum = 101
Slowest flit = 11640
Fragmentation average = 1.42857
	minimum = 0
	maximum = 19
Injected packet rate average = 0.00241406
	minimum = 0 (at node 41)
	maximum = 0.0045 (at node 14)
Accepted packet rate average = 0.00240625
	minimum = 0 (at node 46)
	maximum = 0.005 (at node 6)
Injected flit rate average = 0.0481094
	minimum = 0 (at node 41)
	maximum = 0.09 (at node 14)
Accepted flit rate average= 0.0484062
	minimum = 0 (at node 46)
	maximum = 0.1 (at node 6)
Injected packet length average = 19.9288
Accepted packet length average = 20.1169
Total in-flight flits = 115 (115 measured)
latency change    = 0.0158488
throughput change = 0.093286
Class 0:
Packet latency average = 51.3119
	minimum = 25
	maximum = 121
Network latency average = 50.7588
	minimum = 25
	maximum = 120
Slowest packet = 582
Flit latency average = 30.6225
	minimum = 6
	maximum = 101
Slowest flit = 11640
Fragmentation average = 1.67699
	minimum = 0
	maximum = 27
Injected packet rate average = 0.002375
	minimum = 0.000666667 (at node 8)
	maximum = 0.00366667 (at node 14)
Accepted packet rate average = 0.00239062
	minimum = 0.000333333 (at node 46)
	maximum = 0.005 (at node 37)
Injected flit rate average = 0.0475781
	minimum = 0.0133333 (at node 8)
	maximum = 0.0733333 (at node 14)
Accepted flit rate average= 0.0478437
	minimum = 0.00666667 (at node 46)
	maximum = 0.1 (at node 37)
Injected packet length average = 20.0329
Accepted packet length average = 20.0131
Total in-flight flits = 65 (65 measured)
latency change    = 0.0159856
throughput change = 0.011757
Class 0:
Packet latency average = 50.9984
	minimum = 25
	maximum = 121
Network latency average = 50.5472
	minimum = 25
	maximum = 120
Slowest packet = 582
Flit latency average = 30.4078
	minimum = 6
	maximum = 101
Slowest flit = 11640
Fragmentation average = 1.74919
	minimum = 0
	maximum = 27
Injected packet rate average = 0.00243359
	minimum = 0.00125 (at node 10)
	maximum = 0.00425 (at node 1)
Accepted packet rate average = 0.00242578
	minimum = 0.00025 (at node 46)
	maximum = 0.004 (at node 6)
Injected flit rate average = 0.0486523
	minimum = 0.025 (at node 10)
	maximum = 0.0825 (at node 1)
Accepted flit rate average= 0.0487031
	minimum = 0.005 (at node 46)
	maximum = 0.08 (at node 6)
Injected packet length average = 19.992
Accepted packet length average = 20.0773
Total in-flight flits = 123 (123 measured)
latency change    = 0.00614874
throughput change = 0.0176452
Class 0:
Packet latency average = 50.8996
	minimum = 25
	maximum = 121
Network latency average = 50.4106
	minimum = 25
	maximum = 120
Slowest packet = 582
Flit latency average = 30.3013
	minimum = 6
	maximum = 101
Slowest flit = 11640
Fragmentation average = 1.73359
	minimum = 0
	maximum = 27
Injected packet rate average = 0.00245313
	minimum = 0.0012 (at node 10)
	maximum = 0.0044 (at node 1)
Accepted packet rate average = 0.00245
	minimum = 0.0006 (at node 46)
	maximum = 0.0042 (at node 20)
Injected flit rate average = 0.0490812
	minimum = 0.024 (at node 10)
	maximum = 0.088 (at node 1)
Accepted flit rate average= 0.0490469
	minimum = 0.012 (at node 46)
	maximum = 0.0822 (at node 20)
Injected packet length average = 20.0076
Accepted packet length average = 20.0191
Total in-flight flits = 136 (136 measured)
latency change    = 0.00194024
throughput change = 0.0070086
Draining all recorded packets ...
Draining remaining packets ...
Time taken is 8109 cycles
====== Overall Traffic Statistics ======
====== Traffic class 0 ======
Packet latency average = 51.0701 (1 samples)
	minimum = 25 (1 samples)
	maximum = 121 (1 samples)
Network latency average = 50.5694 (1 samples)
	minimum = 25 (1 samples)
	maximum = 120 (1 samples)
Flit latency average = 30.3674 (1 samples)
	minimum = 6 (1 samples)
	maximum = 101 (1 samples)
Fragmentation average = 1.71592 (1 samples)
	minimum = 0 (1 samples)
	maximum = 27 (1 samples)
Injected packet rate average = 0.00245313 (1 samples)
	minimum = 0.0012 (1 samples)
	maximum = 0.0044 (1 samples)
Accepted packet rate average = 0.00245 (1 samples)
	minimum = 0.0006 (1 samples)
	maximum = 0.0042 (1 samples)
Injected flit rate average = 0.0490812 (1 samples)
	minimum = 0.024 (1 samples)
	maximum = 0.088 (1 samples)
Accepted flit rate average = 0.0490469 (1 samples)
	minimum = 0.012 (1 samples)
	maximum = 0.0822 (1 samples)
Injected packet size average = 20.0076 (1 samples)
Accepted packet size average = 20.0191 (1 samples)
Hops average = 6.38089 (1 samples)
Total run time 1.33563
