BEGIN Configuration File: ../../IL2236_project/verify/figure1/MAD/mesh88_lat
// $Id$

// Copyright (c) 2007-2015, Trustees of The Leland Stanford Junior University
// All rights reserved.
//
// Redistribution and use in source and binary forms, with or without
// modification, are permitted provided that the following conditions are met:
//
// Redistributions of source code must retain the above copyright notice, this
// list of conditions and the following disclaimer.
// Redistributions in binary form must reproduce the above copyright notice,
// this list of conditions and the following disclaimer in the documentation
// and/or other materials provided with the distribution.
//
// THIS SOFTWARE IS PROVIDED BY THE COPYRIGHT HOLDERS AND CONTRIBUTORS "AS IS"
// AND ANY EXPRESS OR IMPLIED WARRANTIES, INCLUDING, BUT NOT LIMITED TO, THE
// IMPLIED WARRANTIES OF MERCHANTABILITY AND FITNESS FOR A PARTICULAR PURPOSE
// ARE DISCLAIMED. IN NO EVENT SHALL THE COPYRIGHT OWNER OR CONTRIBUTORS BE
// LIABLE FOR ANY DIRECT, INDIRECT, INCIDENTAL, SPECIAL, EXEMPLARY, OR
// CONSEQUENTIAL DAMAGES (INCLUDING, BUT NOT LIMITED TO, PROCUREMENT OF
// SUBSTITUTE GOODS OR SERVICES; LOSS OF USE, DATA, OR PROFITS; OR BUSINESS
// INTERRUPTION) HOWEVER CAUSED AND ON ANY THEORY OF LIABILITY, WHETHER IN
// CONTRACT, STRICT LIABILITY, OR TORT (INCLUDING NEGLIGENCE OR OTHERWISE)
// ARISING IN ANY WAY OUT OF THE USE OF THIS SOFTWARE, EVEN IF ADVISED OF THE
// POSSIBILITY OF SUCH DAMAGE.

//8X8 mesh with 20 flits per packet under injection mode
//injection rate here is packet per cycle, NOT flit per cycle

// Topology

topology = mesh;
k = 8;
n = 2;

// Routing
routing_function = min_adapt;

// Flow control
num_vcs     = 8;
vc_buf_size = 8;
wait_for_tail_credit = 1;

// Router architecture
vc_allocator = islip;
sw_allocator = islip;
alloc_iters  = 1;

credit_delay   = 2;
routing_delay  = 0;
vc_alloc_delay = 1;
sw_alloc_delay = 1;

input_speedup     = 2;
output_speedup    = 1;
internal_speedup  = 1.0;


// Traffic
traffic = uniform;
packet_size = 20;


// Simulation
sim_type = latency;

injection_rate = .0060;


END Configuration File: ../../IL2236_project/verify/figure1/MAD/mesh88_lat
Class 0:
Packet latency average = 59.1943
	minimum = 25
	maximum = 172
Network latency average = 57.9971
	minimum = 25
	maximum = 172
Slowest packet = 257
Flit latency average = 36.3803
	minimum = 6
	maximum = 153
Slowest flit = 5140
Fragmentation average = 4.00286
	minimum = 0
	maximum = 48
Injected packet rate average = 0.00567187
	minimum = 0 (at node 60)
	maximum = 0.012 (at node 28)
Accepted packet rate average = 0.00546875
	minimum = 0.001 (at node 29)
	maximum = 0.012 (at node 18)
Injected flit rate average = 0.112391
	minimum = 0 (at node 60)
	maximum = 0.24 (at node 28)
Accepted flit rate average= 0.109875
	minimum = 0.02 (at node 29)
	maximum = 0.24 (at node 18)
Injected packet length average = 19.8154
Accepted packet length average = 20.0914
Total in-flight flits = 228 (0 measured)
latency change    = 1
throughput change = 1
Class 0:
Packet latency average = 59.7709
	minimum = 25
	maximum = 192
Network latency average = 58.4372
	minimum = 25
	maximum = 192
Slowest packet = 632
Flit latency average = 36.7596
	minimum = 6
	maximum = 172
Slowest flit = 12640
Fragmentation average = 4.12151
	minimum = 0
	maximum = 54
Injected packet rate average = 0.00580469
	minimum = 0.0025 (at node 42)
	maximum = 0.01 (at node 35)
Accepted packet rate average = 0.00559375
	minimum = 0.0025 (at node 54)
	maximum = 0.0095 (at node 12)
Injected flit rate average = 0.11525
	minimum = 0.0485 (at node 60)
	maximum = 0.199 (at node 35)
Accepted flit rate average= 0.11282
	minimum = 0.05 (at node 54)
	maximum = 0.19 (at node 12)
Injected packet length average = 19.8546
Accepted packet length average = 20.169
Total in-flight flits = 419 (0 measured)
latency change    = 0.0096479
throughput change = 0.0261062
Class 0:
Packet latency average = 60.4
	minimum = 25
	maximum = 249
Network latency average = 58.613
	minimum = 25
	maximum = 249
Slowest packet = 688
Flit latency average = 36.5122
	minimum = 6
	maximum = 230
Slowest flit = 13760
Fragmentation average = 4.82338
	minimum = 0
	maximum = 36
Injected packet rate average = 0.00590625
	minimum = 0 (at node 7)
	maximum = 0.013 (at node 22)
Accepted packet rate average = 0.00601563
	minimum = 0 (at node 43)
	maximum = 0.012 (at node 31)
Injected flit rate average = 0.118578
	minimum = 0 (at node 7)
	maximum = 0.26 (at node 22)
Accepted flit rate average= 0.119281
	minimum = 0 (at node 43)
	maximum = 0.24 (at node 31)
Injected packet length average = 20.0767
Accepted packet length average = 19.8286
Total in-flight flits = 345 (0 measured)
latency change    = 0.0104147
throughput change = 0.0541656
Warmed up ...Time used is 3000 cycles
Class 0:
Packet latency average = 61.9104
	minimum = 25
	maximum = 205
Network latency average = 59.6821
	minimum = 25
	maximum = 205
Slowest packet = 1138
Flit latency average = 37.6073
	minimum = 6
	maximum = 186
Slowest flit = 22770
Fragmentation average = 6.15318
	minimum = 0
	maximum = 37
Injected packet rate average = 0.00573437
	minimum = 0 (at node 44)
	maximum = 0.013 (at node 47)
Accepted packet rate average = 0.00571875
	minimum = 0 (at node 10)
	maximum = 0.012 (at node 27)
Injected flit rate average = 0.114391
	minimum = 0 (at node 44)
	maximum = 0.26 (at node 47)
Accepted flit rate average= 0.115453
	minimum = 0 (at node 10)
	maximum = 0.24 (at node 39)
Injected packet length average = 19.9482
Accepted packet length average = 20.1885
Total in-flight flits = 296 (296 measured)
latency change    = 0.0243966
throughput change = 0.0331574
Class 0:
Packet latency average = 60.1797
	minimum = 25
	maximum = 205
Network latency average = 58.4522
	minimum = 25
	maximum = 205
Slowest packet = 1138
Flit latency average = 36.1395
	minimum = 6
	maximum = 186
Slowest flit = 22770
Fragmentation average = 6.19544
	minimum = 0
	maximum = 49
Injected packet rate average = 0.00561719
	minimum = 0.002 (at node 57)
	maximum = 0.011 (at node 61)
Accepted packet rate average = 0.00563281
	minimum = 0.0025 (at node 53)
	maximum = 0.0105 (at node 49)
Injected flit rate average = 0.112312
	minimum = 0.04 (at node 57)
	maximum = 0.22 (at node 61)
Accepted flit rate average= 0.112773
	minimum = 0.05 (at node 53)
	maximum = 0.21 (at node 49)
Injected packet length average = 19.9944
Accepted packet length average = 20.0208
Total in-flight flits = 290 (290 measured)
latency change    = 0.0287582
throughput change = 0.0237617
Class 0:
Packet latency average = 59.8087
	minimum = 25
	maximum = 205
Network latency average = 58.2026
	minimum = 25
	maximum = 205
Slowest packet = 1138
Flit latency average = 35.8235
	minimum = 6
	maximum = 186
Slowest flit = 22770
Fragmentation average = 6.08388
	minimum = 0
	maximum = 49
Injected packet rate average = 0.00561458
	minimum = 0.003 (at node 20)
	maximum = 0.00966667 (at node 61)
Accepted packet rate average = 0.00563021
	minimum = 0.00233333 (at node 53)
	maximum = 0.00933333 (at node 40)
Injected flit rate average = 0.11225
	minimum = 0.06 (at node 20)
	maximum = 0.193333 (at node 61)
Accepted flit rate average= 0.112719
	minimum = 0.0466667 (at node 53)
	maximum = 0.186667 (at node 40)
Injected packet length average = 19.9926
Accepted packet length average = 20.0204
Total in-flight flits = 263 (263 measured)
latency change    = 0.00620432
throughput change = 0.000485168
Draining all recorded packets ...
Draining remaining packets ...
Time taken is 6153 cycles
====== Overall Traffic Statistics ======
====== Traffic class 0 ======
Packet latency average = 59.7146 (1 samples)
	minimum = 25 (1 samples)
	maximum = 205 (1 samples)
Network latency average = 58.1251 (1 samples)
	minimum = 25 (1 samples)
	maximum = 205 (1 samples)
Flit latency average = 35.8103 (1 samples)
	minimum = 6 (1 samples)
	maximum = 186 (1 samples)
Fragmentation average = 6.04078 (1 samples)
	minimum = 0 (1 samples)
	maximum = 49 (1 samples)
Injected packet rate average = 0.00561458 (1 samples)
	minimum = 0.003 (1 samples)
	maximum = 0.00966667 (1 samples)
Accepted packet rate average = 0.00563021 (1 samples)
	minimum = 0.00233333 (1 samples)
	maximum = 0.00933333 (1 samples)
Injected flit rate average = 0.11225 (1 samples)
	minimum = 0.06 (1 samples)
	maximum = 0.193333 (1 samples)
Accepted flit rate average = 0.112719 (1 samples)
	minimum = 0.0466667 (1 samples)
	maximum = 0.186667 (1 samples)
Injected packet size average = 19.9926 (1 samples)
Accepted packet size average = 20.0204 (1 samples)
Hops average = 6.35959 (1 samples)
Total run time 1.82777
