BEGIN Configuration File: ../../IL2236_project/verify/figure1/MAD/mesh88_lat
// $Id$

// Copyright (c) 2007-2015, Trustees of The Leland Stanford Junior University
// All rights reserved.
//
// Redistribution and use in source and binary forms, with or without
// modification, are permitted provided that the following conditions are met:
//
// Redistributions of source code must retain the above copyright notice, this
// list of conditions and the following disclaimer.
// Redistributions in binary form must reproduce the above copyright notice,
// this list of conditions and the following disclaimer in the documentation
// and/or other materials provided with the distribution.
//
// THIS SOFTWARE IS PROVIDED BY THE COPYRIGHT HOLDERS AND CONTRIBUTORS "AS IS"
// AND ANY EXPRESS OR IMPLIED WARRANTIES, INCLUDING, BUT NOT LIMITED TO, THE
// IMPLIED WARRANTIES OF MERCHANTABILITY AND FITNESS FOR A PARTICULAR PURPOSE
// ARE DISCLAIMED. IN NO EVENT SHALL THE COPYRIGHT OWNER OR CONTRIBUTORS BE
// LIABLE FOR ANY DIRECT, INDIRECT, INCIDENTAL, SPECIAL, EXEMPLARY, OR
// CONSEQUENTIAL DAMAGES (INCLUDING, BUT NOT LIMITED TO, PROCUREMENT OF
// SUBSTITUTE GOODS OR SERVICES; LOSS OF USE, DATA, OR PROFITS; OR BUSINESS
// INTERRUPTION) HOWEVER CAUSED AND ON ANY THEORY OF LIABILITY, WHETHER IN
// CONTRACT, STRICT LIABILITY, OR TORT (INCLUDING NEGLIGENCE OR OTHERWISE)
// ARISING IN ANY WAY OUT OF THE USE OF THIS SOFTWARE, EVEN IF ADVISED OF THE
// POSSIBILITY OF SUCH DAMAGE.

//8X8 mesh with 20 flits per packet under injection mode
//injection rate here is packet per cycle, NOT flit per cycle

// Topology

topology = mesh;
k = 8;
n = 2;

// Routing
routing_function = min_adapt;

// Flow control
num_vcs     = 8;
vc_buf_size = 8;
wait_for_tail_credit = 1;

// Router architecture
vc_allocator = islip;
sw_allocator = islip;
alloc_iters  = 1;

credit_delay   = 2;
routing_delay  = 0;
vc_alloc_delay = 1;
sw_alloc_delay = 1;

input_speedup     = 2;
output_speedup    = 1;
internal_speedup  = 1.0;


// Traffic
traffic = uniform;
packet_size = 20;


// Simulation
sim_type = latency;

injection_rate = .0100;


END Configuration File: ../../IL2236_project/verify/figure1/MAD/mesh88_lat
Class 0:
Packet latency average = 83.7972
	minimum = 25
	maximum = 395
Network latency average = 76.75
	minimum = 25
	maximum = 395
Slowest packet = 43
Flit latency average = 50.8218
	minimum = 6
	maximum = 376
Slowest flit = 879
Fragmentation average = 10.4336
	minimum = 0
	maximum = 82
Injected packet rate average = 0.0095625
	minimum = 0.004 (at node 21)
	maximum = 0.014 (at node 2)
Accepted packet rate average = 0.0089375
	minimum = 0.004 (at node 37)
	maximum = 0.014 (at node 12)
Injected flit rate average = 0.189484
	minimum = 0.08 (at node 21)
	maximum = 0.28 (at node 2)
Accepted flit rate average= 0.180719
	minimum = 0.08 (at node 37)
	maximum = 0.29 (at node 12)
Injected packet length average = 19.8154
Accepted packet length average = 20.2203
Total in-flight flits = 674 (0 measured)
latency change    = 1
throughput change = 1
Class 0:
Packet latency average = 84.3684
	minimum = 25
	maximum = 528
Network latency average = 78.4895
	minimum = 25
	maximum = 528
Slowest packet = 869
Flit latency average = 52.0058
	minimum = 6
	maximum = 509
Slowest flit = 17397
Fragmentation average = 12.2153
	minimum = 0
	maximum = 101
Injected packet rate average = 0.00974219
	minimum = 0.006 (at node 54)
	maximum = 0.0145 (at node 2)
Accepted packet rate average = 0.00928906
	minimum = 0.0045 (at node 43)
	maximum = 0.014 (at node 12)
Injected flit rate average = 0.193508
	minimum = 0.12 (at node 54)
	maximum = 0.29 (at node 2)
Accepted flit rate average= 0.187891
	minimum = 0.0975 (at node 43)
	maximum = 0.28 (at node 12)
Injected packet length average = 19.8629
Accepted packet length average = 20.2271
Total in-flight flits = 890 (0 measured)
latency change    = 0.00677
throughput change = 0.0381705
Class 0:
Packet latency average = 86.3967
	minimum = 25
	maximum = 377
Network latency average = 80.6991
	minimum = 25
	maximum = 377
Slowest packet = 1342
Flit latency average = 51.7774
	minimum = 6
	maximum = 358
Slowest flit = 26840
Fragmentation average = 16.0659
	minimum = 0
	maximum = 105
Injected packet rate average = 0.0103125
	minimum = 0.004 (at node 3)
	maximum = 0.02 (at node 49)
Accepted packet rate average = 0.0104375
	minimum = 0.005 (at node 53)
	maximum = 0.017 (at node 38)
Injected flit rate average = 0.206781
	minimum = 0.08 (at node 3)
	maximum = 0.4 (at node 49)
Accepted flit rate average= 0.207109
	minimum = 0.09 (at node 53)
	maximum = 0.334 (at node 49)
Injected packet length average = 20.0515
Accepted packet length average = 19.8428
Total in-flight flits = 835 (0 measured)
latency change    = 0.0234769
throughput change = 0.0927952
Warmed up ...Time used is 3000 cycles
Class 0:
Packet latency average = 79.4091
	minimum = 25
	maximum = 388
Network latency average = 75.436
	minimum = 25
	maximum = 388
Slowest packet = 2055
Flit latency average = 50.2628
	minimum = 6
	maximum = 366
Slowest flit = 41116
Fragmentation average = 13.3687
	minimum = 0
	maximum = 67
Injected packet rate average = 0.0100625
	minimum = 0.005 (at node 11)
	maximum = 0.015 (at node 7)
Accepted packet rate average = 0.0100625
	minimum = 0.004 (at node 17)
	maximum = 0.018 (at node 47)
Injected flit rate average = 0.200859
	minimum = 0.1 (at node 11)
	maximum = 0.3 (at node 7)
Accepted flit rate average= 0.202437
	minimum = 0.08 (at node 17)
	maximum = 0.324 (at node 47)
Injected packet length average = 19.9612
Accepted packet length average = 20.118
Total in-flight flits = 759 (759 measured)
latency change    = 0.0879952
throughput change = 0.0230781
Class 0:
Packet latency average = 82.3642
	minimum = 25
	maximum = 432
Network latency average = 77.3262
	minimum = 25
	maximum = 432
Slowest packet = 2578
Flit latency average = 50.4851
	minimum = 6
	maximum = 413
Slowest flit = 51560
Fragmentation average = 14.6284
	minimum = 0
	maximum = 90
Injected packet rate average = 0.00978125
	minimum = 0.0055 (at node 25)
	maximum = 0.014 (at node 15)
Accepted packet rate average = 0.00985156
	minimum = 0.005 (at node 17)
	maximum = 0.0155 (at node 22)
Injected flit rate average = 0.195742
	minimum = 0.11 (at node 25)
	maximum = 0.2865 (at node 15)
Accepted flit rate average= 0.1975
	minimum = 0.1 (at node 17)
	maximum = 0.31 (at node 22)
Injected packet length average = 20.012
Accepted packet length average = 20.0476
Total in-flight flits = 595 (595 measured)
latency change    = 0.0358781
throughput change = 0.025
Class 0:
Packet latency average = 80.801
	minimum = 25
	maximum = 432
Network latency average = 75.982
	minimum = 25
	maximum = 432
Slowest packet = 2578
Flit latency average = 49.1004
	minimum = 6
	maximum = 413
Slowest flit = 51560
Fragmentation average = 14.2143
	minimum = 0
	maximum = 111
Injected packet rate average = 0.00972917
	minimum = 0.005 (at node 56)
	maximum = 0.0156667 (at node 15)
Accepted packet rate average = 0.00978646
	minimum = 0.00666667 (at node 10)
	maximum = 0.0143333 (at node 22)
Injected flit rate average = 0.194432
	minimum = 0.1 (at node 56)
	maximum = 0.317667 (at node 15)
Accepted flit rate average= 0.19574
	minimum = 0.133333 (at node 10)
	maximum = 0.286667 (at node 22)
Injected packet length average = 19.9845
Accepted packet length average = 20.0011
Total in-flight flits = 613 (613 measured)
latency change    = 0.019346
throughput change = 0.00899367
Class 0:
Packet latency average = 79.9497
	minimum = 25
	maximum = 451
Network latency average = 75.2362
	minimum = 25
	maximum = 451
Slowest packet = 4124
Flit latency average = 48.5457
	minimum = 6
	maximum = 432
Slowest flit = 82499
Fragmentation average = 13.8661
	minimum = 0
	maximum = 111
Injected packet rate average = 0.0098125
	minimum = 0.00625 (at node 56)
	maximum = 0.01475 (at node 15)
Accepted packet rate average = 0.00982031
	minimum = 0.006 (at node 30)
	maximum = 0.0135 (at node 22)
Injected flit rate average = 0.196242
	minimum = 0.125 (at node 56)
	maximum = 0.29825 (at node 15)
Accepted flit rate average= 0.196609
	minimum = 0.12 (at node 30)
	maximum = 0.27 (at node 22)
Injected packet length average = 19.9992
Accepted packet length average = 20.0207
Total in-flight flits = 743 (743 measured)
latency change    = 0.0106481
throughput change = 0.00442396
Draining all recorded packets ...
Draining remaining packets ...
Time taken is 7316 cycles
====== Overall Traffic Statistics ======
====== Traffic class 0 ======
Packet latency average = 80.6272 (1 samples)
	minimum = 25 (1 samples)
	maximum = 515 (1 samples)
Network latency average = 75.93 (1 samples)
	minimum = 25 (1 samples)
	maximum = 515 (1 samples)
Flit latency average = 48.874 (1 samples)
	minimum = 6 (1 samples)
	maximum = 496 (1 samples)
Fragmentation average = 13.7953 (1 samples)
	minimum = 0 (1 samples)
	maximum = 111 (1 samples)
Injected packet rate average = 0.0098125 (1 samples)
	minimum = 0.00625 (1 samples)
	maximum = 0.01475 (1 samples)
Accepted packet rate average = 0.00982031 (1 samples)
	minimum = 0.006 (1 samples)
	maximum = 0.0135 (1 samples)
Injected flit rate average = 0.196242 (1 samples)
	minimum = 0.125 (1 samples)
	maximum = 0.29825 (1 samples)
Accepted flit rate average = 0.196609 (1 samples)
	minimum = 0.12 (1 samples)
	maximum = 0.27 (1 samples)
Injected packet size average = 19.9992 (1 samples)
Accepted packet size average = 20.0207 (1 samples)
Hops average = 6.37838 (1 samples)
Total run time 3.38473
