BEGIN Configuration File: ../../IL2236_project/verify/figure1/MAD/mesh88_lat
// $Id$

// Copyright (c) 2007-2015, Trustees of The Leland Stanford Junior University
// All rights reserved.
//
// Redistribution and use in source and binary forms, with or without
// modification, are permitted provided that the following conditions are met:
//
// Redistributions of source code must retain the above copyright notice, this
// list of conditions and the following disclaimer.
// Redistributions in binary form must reproduce the above copyright notice,
// this list of conditions and the following disclaimer in the documentation
// and/or other materials provided with the distribution.
//
// THIS SOFTWARE IS PROVIDED BY THE COPYRIGHT HOLDERS AND CONTRIBUTORS "AS IS"
// AND ANY EXPRESS OR IMPLIED WARRANTIES, INCLUDING, BUT NOT LIMITED TO, THE
// IMPLIED WARRANTIES OF MERCHANTABILITY AND FITNESS FOR A PARTICULAR PURPOSE
// ARE DISCLAIMED. IN NO EVENT SHALL THE COPYRIGHT OWNER OR CONTRIBUTORS BE
// LIABLE FOR ANY DIRECT, INDIRECT, INCIDENTAL, SPECIAL, EXEMPLARY, OR
// CONSEQUENTIAL DAMAGES (INCLUDING, BUT NOT LIMITED TO, PROCUREMENT OF
// SUBSTITUTE GOODS OR SERVICES; LOSS OF USE, DATA, OR PROFITS; OR BUSINESS
// INTERRUPTION) HOWEVER CAUSED AND ON ANY THEORY OF LIABILITY, WHETHER IN
// CONTRACT, STRICT LIABILITY, OR TORT (INCLUDING NEGLIGENCE OR OTHERWISE)
// ARISING IN ANY WAY OUT OF THE USE OF THIS SOFTWARE, EVEN IF ADVISED OF THE
// POSSIBILITY OF SUCH DAMAGE.

//8X8 mesh with 20 flits per packet under injection mode
//injection rate here is packet per cycle, NOT flit per cycle

// Topology

topology = mesh;
k = 8;
n = 2;

// Routing
routing_function = min_adapt;

// Flow control
num_vcs     = 8;
vc_buf_size = 8;
wait_for_tail_credit = 1;

// Router architecture
vc_allocator = islip;
sw_allocator = islip;
alloc_iters  = 1;

credit_delay   = 2;
routing_delay  = 0;
vc_alloc_delay = 1;
sw_alloc_delay = 1;

input_speedup     = 2;
output_speedup    = 1;
internal_speedup  = 1.0;


// Traffic
traffic = uniform;
packet_size = 20;


// Simulation
sim_type = latency;

injection_rate = .0105;


END Configuration File: ../../IL2236_project/verify/figure1/MAD/mesh88_lat
Class 0:
Packet latency average = 87.3146
	minimum = 25
	maximum = 397
Network latency average = 81.5861
	minimum = 25
	maximum = 393
Slowest packet = 255
Flit latency average = 53.6358
	minimum = 6
	maximum = 374
Slowest flit = 5119
Fragmentation average = 14.2483
	minimum = 0
	maximum = 100
Injected packet rate average = 0.0101094
	minimum = 0.005 (at node 7)
	maximum = 0.016 (at node 46)
Accepted packet rate average = 0.0094375
	minimum = 0.005 (at node 11)
	maximum = 0.017 (at node 12)
Injected flit rate average = 0.2
	minimum = 0.1 (at node 7)
	maximum = 0.32 (at node 46)
Accepted flit rate average= 0.190703
	minimum = 0.1 (at node 11)
	maximum = 0.34 (at node 12)
Injected packet length average = 19.7836
Accepted packet length average = 20.207
Total in-flight flits = 735 (0 measured)
latency change    = 1
throughput change = 1
Class 0:
Packet latency average = 83.0216
	minimum = 25
	maximum = 397
Network latency average = 77.8408
	minimum = 25
	maximum = 393
Slowest packet = 255
Flit latency average = 50.1951
	minimum = 6
	maximum = 374
Slowest flit = 5119
Fragmentation average = 13.752
	minimum = 0
	maximum = 118
Injected packet rate average = 0.0102891
	minimum = 0.0065 (at node 38)
	maximum = 0.016 (at node 17)
Accepted packet rate average = 0.00976562
	minimum = 0.006 (at node 43)
	maximum = 0.014 (at node 12)
Injected flit rate average = 0.204102
	minimum = 0.13 (at node 38)
	maximum = 0.3175 (at node 17)
Accepted flit rate average= 0.19818
	minimum = 0.129 (at node 43)
	maximum = 0.29 (at node 27)
Injected packet length average = 19.8368
Accepted packet length average = 20.2936
Total in-flight flits = 973 (0 measured)
latency change    = 0.0517091
throughput change = 0.0377262
Class 0:
Packet latency average = 84.3324
	minimum = 25
	maximum = 416
Network latency average = 79.4775
	minimum = 25
	maximum = 416
Slowest packet = 1355
Flit latency average = 50.9128
	minimum = 6
	maximum = 397
Slowest flit = 27100
Fragmentation average = 16.1718
	minimum = 0
	maximum = 128
Injected packet rate average = 0.0108281
	minimum = 0.003 (at node 3)
	maximum = 0.02 (at node 16)
Accepted packet rate average = 0.0110937
	minimum = 0.006 (at node 18)
	maximum = 0.018 (at node 40)
Injected flit rate average = 0.217281
	minimum = 0.067 (at node 3)
	maximum = 0.414 (at node 16)
Accepted flit rate average= 0.219406
	minimum = 0.102 (at node 52)
	maximum = 0.36 (at node 40)
Injected packet length average = 20.0664
Accepted packet length average = 19.7775
Total in-flight flits = 791 (0 measured)
latency change    = 0.0155432
throughput change = 0.0967455
Warmed up ...Time used is 3000 cycles
Class 0:
Packet latency average = 84.322
	minimum = 25
	maximum = 324
Network latency average = 77.8585
	minimum = 25
	maximum = 324
Slowest packet = 2224
Flit latency average = 49.0632
	minimum = 6
	maximum = 305
Slowest flit = 44491
Fragmentation average = 17.4358
	minimum = 0
	maximum = 136
Injected packet rate average = 0.0105156
	minimum = 0.005 (at node 3)
	maximum = 0.02 (at node 6)
Accepted packet rate average = 0.0103906
	minimum = 0.004 (at node 30)
	maximum = 0.018 (at node 44)
Injected flit rate average = 0.210609
	minimum = 0.1 (at node 3)
	maximum = 0.401 (at node 6)
Accepted flit rate average= 0.209578
	minimum = 0.08 (at node 52)
	maximum = 0.349 (at node 44)
Injected packet length average = 20.0282
Accepted packet length average = 20.1699
Total in-flight flits = 838 (838 measured)
latency change    = 0.000123848
throughput change = 0.0468948
Class 0:
Packet latency average = 80.7504
	minimum = 25
	maximum = 324
Network latency average = 75.6745
	minimum = 25
	maximum = 324
Slowest packet = 2224
Flit latency average = 47.3716
	minimum = 6
	maximum = 305
Slowest flit = 44491
Fragmentation average = 16.3028
	minimum = 0
	maximum = 141
Injected packet rate average = 0.0102891
	minimum = 0.006 (at node 17)
	maximum = 0.015 (at node 5)
Accepted packet rate average = 0.010375
	minimum = 0.006 (at node 30)
	maximum = 0.0165 (at node 22)
Injected flit rate average = 0.205953
	minimum = 0.12 (at node 17)
	maximum = 0.3 (at node 5)
Accepted flit rate average= 0.207164
	minimum = 0.12 (at node 30)
	maximum = 0.33 (at node 22)
Injected packet length average = 20.0167
Accepted packet length average = 19.9676
Total in-flight flits = 614 (614 measured)
latency change    = 0.0442296
throughput change = 0.0116529
Class 0:
Packet latency average = 79.4781
	minimum = 25
	maximum = 324
Network latency average = 74.9207
	minimum = 25
	maximum = 324
Slowest packet = 2224
Flit latency average = 46.8454
	minimum = 6
	maximum = 305
Slowest flit = 44491
Fragmentation average = 15.7907
	minimum = 0
	maximum = 141
Injected packet rate average = 0.010224
	minimum = 0.00666667 (at node 32)
	maximum = 0.0146667 (at node 27)
Accepted packet rate average = 0.0102396
	minimum = 0.00666667 (at node 15)
	maximum = 0.015 (at node 22)
Injected flit rate average = 0.204349
	minimum = 0.133333 (at node 32)
	maximum = 0.29 (at node 27)
Accepted flit rate average= 0.204839
	minimum = 0.133333 (at node 25)
	maximum = 0.303333 (at node 22)
Injected packet length average = 19.9873
Accepted packet length average = 20.0046
Total in-flight flits = 722 (722 measured)
latency change    = 0.0160083
throughput change = 0.0113529
Draining all recorded packets ...
Draining remaining packets ...
Time taken is 6340 cycles
====== Overall Traffic Statistics ======
====== Traffic class 0 ======
Packet latency average = 79.6919 (1 samples)
	minimum = 25 (1 samples)
	maximum = 324 (1 samples)
Network latency average = 75.1357 (1 samples)
	minimum = 25 (1 samples)
	maximum = 324 (1 samples)
Flit latency average = 47.5942 (1 samples)
	minimum = 6 (1 samples)
	maximum = 305 (1 samples)
Fragmentation average = 15.7285 (1 samples)
	minimum = 0 (1 samples)
	maximum = 141 (1 samples)
Injected packet rate average = 0.010224 (1 samples)
	minimum = 0.00666667 (1 samples)
	maximum = 0.0146667 (1 samples)
Accepted packet rate average = 0.0102396 (1 samples)
	minimum = 0.00666667 (1 samples)
	maximum = 0.015 (1 samples)
Injected flit rate average = 0.204349 (1 samples)
	minimum = 0.133333 (1 samples)
	maximum = 0.29 (1 samples)
Accepted flit rate average = 0.204839 (1 samples)
	minimum = 0.133333 (1 samples)
	maximum = 0.303333 (1 samples)
Injected packet size average = 19.9873 (1 samples)
Accepted packet size average = 20.0046 (1 samples)
Hops average = 6.25521 (1 samples)
Total run time 2.99667
