BEGIN Configuration File: ../../IL2236_project/verify/figure1/MAD/mesh88_lat
// $Id$

// Copyright (c) 2007-2015, Trustees of The Leland Stanford Junior University
// All rights reserved.
//
// Redistribution and use in source and binary forms, with or without
// modification, are permitted provided that the following conditions are met:
//
// Redistributions of source code must retain the above copyright notice, this
// list of conditions and the following disclaimer.
// Redistributions in binary form must reproduce the above copyright notice,
// this list of conditions and the following disclaimer in the documentation
// and/or other materials provided with the distribution.
//
// THIS SOFTWARE IS PROVIDED BY THE COPYRIGHT HOLDERS AND CONTRIBUTORS "AS IS"
// AND ANY EXPRESS OR IMPLIED WARRANTIES, INCLUDING, BUT NOT LIMITED TO, THE
// IMPLIED WARRANTIES OF MERCHANTABILITY AND FITNESS FOR A PARTICULAR PURPOSE
// ARE DISCLAIMED. IN NO EVENT SHALL THE COPYRIGHT OWNER OR CONTRIBUTORS BE
// LIABLE FOR ANY DIRECT, INDIRECT, INCIDENTAL, SPECIAL, EXEMPLARY, OR
// CONSEQUENTIAL DAMAGES (INCLUDING, BUT NOT LIMITED TO, PROCUREMENT OF
// SUBSTITUTE GOODS OR SERVICES; LOSS OF USE, DATA, OR PROFITS; OR BUSINESS
// INTERRUPTION) HOWEVER CAUSED AND ON ANY THEORY OF LIABILITY, WHETHER IN
// CONTRACT, STRICT LIABILITY, OR TORT (INCLUDING NEGLIGENCE OR OTHERWISE)
// ARISING IN ANY WAY OUT OF THE USE OF THIS SOFTWARE, EVEN IF ADVISED OF THE
// POSSIBILITY OF SUCH DAMAGE.

//8X8 mesh with 20 flits per packet under injection mode
//injection rate here is packet per cycle, NOT flit per cycle

// Topology

topology = mesh;
k = 8;
n = 2;

// Routing
routing_function = min_adapt;

// Flow control
num_vcs     = 8;
vc_buf_size = 8;
wait_for_tail_credit = 1;

// Router architecture
vc_allocator = islip;
sw_allocator = islip;
alloc_iters  = 1;

credit_delay   = 2;
routing_delay  = 0;
vc_alloc_delay = 1;
sw_alloc_delay = 1;

input_speedup     = 2;
output_speedup    = 1;
internal_speedup  = 1.0;


// Traffic
traffic = uniform;
packet_size = 20;


// Simulation
sim_type = latency;

injection_rate = .0125;


END Configuration File: ../../IL2236_project/verify/figure1/MAD/mesh88_lat
Class 0:
Packet latency average = 90.7961
	minimum = 25
	maximum = 370
Network latency average = 82.4161
	minimum = 25
	maximum = 370
Slowest packet = 474
Flit latency average = 53.7746
	minimum = 6
	maximum = 375
Slowest flit = 9586
Fragmentation average = 15.8502
	minimum = 0
	maximum = 85
Injected packet rate average = 0.0121875
	minimum = 0.003 (at node 15)
	maximum = 0.02 (at node 0)
Accepted packet rate average = 0.0112656
	minimum = 0.005 (at node 54)
	maximum = 0.019 (at node 12)
Injected flit rate average = 0.240906
	minimum = 0.059 (at node 15)
	maximum = 0.394 (at node 29)
Accepted flit rate average= 0.22825
	minimum = 0.104 (at node 54)
	maximum = 0.392 (at node 12)
Injected packet length average = 19.7667
Accepted packet length average = 20.2607
Total in-flight flits = 992 (0 measured)
latency change    = 1
throughput change = 1
Class 0:
Packet latency average = 99.0246
	minimum = 25
	maximum = 654
Network latency average = 89.1931
	minimum = 25
	maximum = 654
Slowest packet = 874
Flit latency average = 58.4418
	minimum = 6
	maximum = 865
Slowest flit = 17515
Fragmentation average = 19.9124
	minimum = 0
	maximum = 171
Injected packet rate average = 0.0124219
	minimum = 0.006 (at node 15)
	maximum = 0.0175 (at node 0)
Accepted packet rate average = 0.0117734
	minimum = 0.0075 (at node 29)
	maximum = 0.018 (at node 27)
Injected flit rate average = 0.246609
	minimum = 0.1115 (at node 15)
	maximum = 0.35 (at node 0)
Accepted flit rate average= 0.238547
	minimum = 0.15 (at node 29)
	maximum = 0.36 (at node 27)
Injected packet length average = 19.8528
Accepted packet length average = 20.2614
Total in-flight flits = 1266 (0 measured)
latency change    = 0.0830949
throughput change = 0.043165
Class 0:
Packet latency average = 106.172
	minimum = 25
	maximum = 1036
Network latency average = 94.978
	minimum = 25
	maximum = 1036
Slowest packet = 872
Flit latency average = 62.1453
	minimum = 6
	maximum = 1017
Slowest flit = 17440
Fragmentation average = 22.1184
	minimum = 0
	maximum = 127
Injected packet rate average = 0.0127969
	minimum = 0.005 (at node 31)
	maximum = 0.021 (at node 23)
Accepted packet rate average = 0.0127969
	minimum = 0.006 (at node 52)
	maximum = 0.022 (at node 47)
Injected flit rate average = 0.255734
	minimum = 0.1 (at node 31)
	maximum = 0.416 (at node 23)
Accepted flit rate average= 0.255922
	minimum = 0.108 (at node 52)
	maximum = 0.45 (at node 47)
Injected packet length average = 19.9841
Accepted packet length average = 19.9988
Total in-flight flits = 1267 (0 measured)
latency change    = 0.0673209
throughput change = 0.0678918
Warmed up ...Time used is 3000 cycles
Class 0:
Packet latency average = 102.569
	minimum = 25
	maximum = 515
Network latency average = 89.7345
	minimum = 25
	maximum = 496
Slowest packet = 2576
Flit latency average = 60.3101
	minimum = 6
	maximum = 593
Slowest flit = 41900
Fragmentation average = 23.1554
	minimum = 0
	maximum = 167
Injected packet rate average = 0.0125313
	minimum = 0.004 (at node 9)
	maximum = 0.022 (at node 32)
Accepted packet rate average = 0.0126563
	minimum = 0.007 (at node 17)
	maximum = 0.026 (at node 22)
Injected flit rate average = 0.251516
	minimum = 0.08 (at node 9)
	maximum = 0.444 (at node 32)
Accepted flit rate average= 0.252781
	minimum = 0.134 (at node 36)
	maximum = 0.499 (at node 22)
Injected packet length average = 20.0711
Accepted packet length average = 19.9728
Total in-flight flits = 1129 (1129 measured)
latency change    = 0.0351245
throughput change = 0.0124243
Class 0:
Packet latency average = 98.685
	minimum = 25
	maximum = 515
Network latency average = 88.0797
	minimum = 25
	maximum = 496
Slowest packet = 2576
Flit latency average = 58.0295
	minimum = 6
	maximum = 593
Slowest flit = 41900
Fragmentation average = 21.8306
	minimum = 0
	maximum = 185
Injected packet rate average = 0.0122813
	minimum = 0.0065 (at node 9)
	maximum = 0.019 (at node 1)
Accepted packet rate average = 0.0124063
	minimum = 0.007 (at node 23)
	maximum = 0.0215 (at node 22)
Injected flit rate average = 0.246195
	minimum = 0.13 (at node 9)
	maximum = 0.3705 (at node 1)
Accepted flit rate average= 0.248508
	minimum = 0.133 (at node 23)
	maximum = 0.423 (at node 22)
Injected packet length average = 20.0464
Accepted packet length average = 20.0309
Total in-flight flits = 898 (898 measured)
latency change    = 0.0393617
throughput change = 0.0171964
Class 0:
Packet latency average = 98.3031
	minimum = 25
	maximum = 602
Network latency average = 88.6606
	minimum = 25
	maximum = 596
Slowest packet = 4185
Flit latency average = 58.2708
	minimum = 6
	maximum = 593
Slowest flit = 41900
Fragmentation average = 21.4808
	minimum = 0
	maximum = 185
Injected packet rate average = 0.012125
	minimum = 0.007 (at node 9)
	maximum = 0.0153333 (at node 32)
Accepted packet rate average = 0.0122188
	minimum = 0.007 (at node 30)
	maximum = 0.0173333 (at node 22)
Injected flit rate average = 0.242797
	minimum = 0.14 (at node 9)
	maximum = 0.308 (at node 32)
Accepted flit rate average= 0.243495
	minimum = 0.139333 (at node 30)
	maximum = 0.342333 (at node 22)
Injected packet length average = 20.0245
Accepted packet length average = 19.928
Total in-flight flits = 1076 (1076 measured)
latency change    = 0.00388505
throughput change = 0.0205878
Draining all recorded packets ...
Draining remaining packets ...
Time taken is 6439 cycles
====== Overall Traffic Statistics ======
====== Traffic class 0 ======
Packet latency average = 100.64 (1 samples)
	minimum = 25 (1 samples)
	maximum = 799 (1 samples)
Network latency average = 90.6885 (1 samples)
	minimum = 25 (1 samples)
	maximum = 795 (1 samples)
Flit latency average = 59.5055 (1 samples)
	minimum = 6 (1 samples)
	maximum = 776 (1 samples)
Fragmentation average = 21.6329 (1 samples)
	minimum = 0 (1 samples)
	maximum = 185 (1 samples)
Injected packet rate average = 0.012125 (1 samples)
	minimum = 0.007 (1 samples)
	maximum = 0.0153333 (1 samples)
Accepted packet rate average = 0.0122188 (1 samples)
	minimum = 0.007 (1 samples)
	maximum = 0.0173333 (1 samples)
Injected flit rate average = 0.242797 (1 samples)
	minimum = 0.14 (1 samples)
	maximum = 0.308 (1 samples)
Accepted flit rate average = 0.243495 (1 samples)
	minimum = 0.139333 (1 samples)
	maximum = 0.342333 (1 samples)
Injected packet size average = 20.0245 (1 samples)
Accepted packet size average = 19.928 (1 samples)
Hops average = 6.27735 (1 samples)
Total run time 3.56567
