BEGIN Configuration File: ../../IL2236_project/verify/figure1/MAD/mesh88_lat
// $Id$

// Copyright (c) 2007-2015, Trustees of The Leland Stanford Junior University
// All rights reserved.
//
// Redistribution and use in source and binary forms, with or without
// modification, are permitted provided that the following conditions are met:
//
// Redistributions of source code must retain the above copyright notice, this
// list of conditions and the following disclaimer.
// Redistributions in binary form must reproduce the above copyright notice,
// this list of conditions and the following disclaimer in the documentation
// and/or other materials provided with the distribution.
//
// THIS SOFTWARE IS PROVIDED BY THE COPYRIGHT HOLDERS AND CONTRIBUTORS "AS IS"
// AND ANY EXPRESS OR IMPLIED WARRANTIES, INCLUDING, BUT NOT LIMITED TO, THE
// IMPLIED WARRANTIES OF MERCHANTABILITY AND FITNESS FOR A PARTICULAR PURPOSE
// ARE DISCLAIMED. IN NO EVENT SHALL THE COPYRIGHT OWNER OR CONTRIBUTORS BE
// LIABLE FOR ANY DIRECT, INDIRECT, INCIDENTAL, SPECIAL, EXEMPLARY, OR
// CONSEQUENTIAL DAMAGES (INCLUDING, BUT NOT LIMITED TO, PROCUREMENT OF
// SUBSTITUTE GOODS OR SERVICES; LOSS OF USE, DATA, OR PROFITS; OR BUSINESS
// INTERRUPTION) HOWEVER CAUSED AND ON ANY THEORY OF LIABILITY, WHETHER IN
// CONTRACT, STRICT LIABILITY, OR TORT (INCLUDING NEGLIGENCE OR OTHERWISE)
// ARISING IN ANY WAY OUT OF THE USE OF THIS SOFTWARE, EVEN IF ADVISED OF THE
// POSSIBILITY OF SUCH DAMAGE.

//8X8 mesh with 20 flits per packet under injection mode
//injection rate here is packet per cycle, NOT flit per cycle

// Topology

topology = mesh;
k = 8;
n = 2;

// Routing
routing_function = min_adapt;

// Flow control
num_vcs     = 8;
vc_buf_size = 8;
wait_for_tail_credit = 1;

// Router architecture
vc_allocator = islip;
sw_allocator = islip;
alloc_iters  = 1;

credit_delay   = 2;
routing_delay  = 0;
vc_alloc_delay = 1;
sw_alloc_delay = 1;

input_speedup     = 2;
output_speedup    = 1;
internal_speedup  = 1.0;


// Traffic
traffic = uniform;
packet_size = 20;


// Simulation
sim_type = latency;

injection_rate = .0120;


END Configuration File: ../../IL2236_project/verify/figure1/MAD/mesh88_lat
Class 0:
Packet latency average = 96.9305
	minimum = 25
	maximum = 392
Network latency average = 87.9734
	minimum = 25
	maximum = 392
Slowest packet = 90
Flit latency average = 57.8702
	minimum = 6
	maximum = 373
Slowest flit = 1807
Fragmentation average = 17.716
	minimum = 0
	maximum = 109
Injected packet rate average = 0.0115937
	minimum = 0.006 (at node 17)
	maximum = 0.017 (at node 7)
Accepted packet rate average = 0.0105625
	minimum = 0.005 (at node 11)
	maximum = 0.018 (at node 12)
Injected flit rate average = 0.229594
	minimum = 0.119 (at node 17)
	maximum = 0.34 (at node 9)
Accepted flit rate average= 0.215797
	minimum = 0.1 (at node 54)
	maximum = 0.382 (at node 12)
Injected packet length average = 19.8032
Accepted packet length average = 20.4305
Total in-flight flits = 1029 (0 measured)
latency change    = 1
throughput change = 1
Class 0:
Packet latency average = 100.585
	minimum = 25
	maximum = 647
Network latency average = 89.2021
	minimum = 25
	maximum = 647
Slowest packet = 947
Flit latency average = 58.91
	minimum = 6
	maximum = 628
Slowest flit = 18940
Fragmentation average = 19.0625
	minimum = 0
	maximum = 141
Injected packet rate average = 0.0117969
	minimum = 0.006 (at node 26)
	maximum = 0.0165 (at node 9)
Accepted packet rate average = 0.0111328
	minimum = 0.0075 (at node 43)
	maximum = 0.017 (at node 27)
Injected flit rate average = 0.23407
	minimum = 0.112 (at node 26)
	maximum = 0.33 (at node 9)
Accepted flit rate average= 0.225844
	minimum = 0.16 (at node 29)
	maximum = 0.34 (at node 27)
Injected packet length average = 19.8417
Accepted packet length average = 20.2863
Total in-flight flits = 1292 (0 measured)
latency change    = 0.0363352
throughput change = 0.044486
Class 0:
Packet latency average = 106.267
	minimum = 25
	maximum = 668
Network latency average = 95.5433
	minimum = 25
	maximum = 668
Slowest packet = 1018
Flit latency average = 61.5283
	minimum = 6
	maximum = 620
Slowest flit = 20375
Fragmentation average = 24.8435
	minimum = 0
	maximum = 169
Injected packet rate average = 0.0122344
	minimum = 0.005 (at node 14)
	maximum = 0.021 (at node 53)
Accepted packet rate average = 0.0122813
	minimum = 0.005 (at node 52)
	maximum = 0.021 (at node 47)
Injected flit rate average = 0.245156
	minimum = 0.1 (at node 14)
	maximum = 0.412 (at node 53)
Accepted flit rate average= 0.245531
	minimum = 0.1 (at node 52)
	maximum = 0.42 (at node 47)
Injected packet length average = 20.0383
Accepted packet length average = 19.9924
Total in-flight flits = 1238 (0 measured)
latency change    = 0.0534682
throughput change = 0.0801833
Warmed up ...Time used is 3000 cycles
Class 0:
Packet latency average = 94.2443
	minimum = 25
	maximum = 493
Network latency average = 86.9339
	minimum = 25
	maximum = 493
Slowest packet = 2366
Flit latency average = 58.2092
	minimum = 6
	maximum = 474
Slowest flit = 47327
Fragmentation average = 22.5115
	minimum = 0
	maximum = 133
Injected packet rate average = 0.0119219
	minimum = 0.004 (at node 16)
	maximum = 0.019 (at node 50)
Accepted packet rate average = 0.0121563
	minimum = 0.007 (at node 13)
	maximum = 0.02 (at node 22)
Injected flit rate average = 0.239031
	minimum = 0.08 (at node 16)
	maximum = 0.363 (at node 50)
Accepted flit rate average= 0.241828
	minimum = 0.14 (at node 13)
	maximum = 0.4 (at node 22)
Injected packet length average = 20.0498
Accepted packet length average = 19.8933
Total in-flight flits = 1021 (1021 measured)
latency change    = 0.127572
throughput change = 0.015313
Class 0:
Packet latency average = 92.1308
	minimum = 25
	maximum = 493
Network latency average = 85.4145
	minimum = 25
	maximum = 493
Slowest packet = 2366
Flit latency average = 56.0937
	minimum = 6
	maximum = 474
Slowest flit = 47327
Fragmentation average = 20.3737
	minimum = 0
	maximum = 133
Injected packet rate average = 0.0117578
	minimum = 0.0065 (at node 46)
	maximum = 0.017 (at node 43)
Accepted packet rate average = 0.0119297
	minimum = 0.0075 (at node 10)
	maximum = 0.0195 (at node 22)
Injected flit rate average = 0.235586
	minimum = 0.132 (at node 46)
	maximum = 0.3415 (at node 43)
Accepted flit rate average= 0.237766
	minimum = 0.149 (at node 23)
	maximum = 0.39 (at node 22)
Injected packet length average = 20.0365
Accepted packet length average = 19.9306
Total in-flight flits = 904 (904 measured)
latency change    = 0.0229397
throughput change = 0.0170862
Class 0:
Packet latency average = 95.3802
	minimum = 25
	maximum = 812
Network latency average = 88.1517
	minimum = 25
	maximum = 809
Slowest packet = 3595
Flit latency average = 58.2287
	minimum = 6
	maximum = 785
Slowest flit = 71915
Fragmentation average = 20.0487
	minimum = 0
	maximum = 150
Injected packet rate average = 0.0116615
	minimum = 0.008 (at node 46)
	maximum = 0.016 (at node 52)
Accepted packet rate average = 0.0117552
	minimum = 0.00733333 (at node 30)
	maximum = 0.0173333 (at node 22)
Injected flit rate average = 0.233036
	minimum = 0.161333 (at node 46)
	maximum = 0.318333 (at node 52)
Accepted flit rate average= 0.234036
	minimum = 0.144667 (at node 30)
	maximum = 0.346667 (at node 22)
Injected packet length average = 19.9835
Accepted packet length average = 19.9092
Total in-flight flits = 1083 (1083 measured)
latency change    = 0.0340682
throughput change = 0.0159341
Class 0:
Packet latency average = 93.5882
	minimum = 25
	maximum = 812
Network latency average = 86.4804
	minimum = 25
	maximum = 809
Slowest packet = 3595
Flit latency average = 56.9541
	minimum = 6
	maximum = 785
Slowest flit = 71915
Fragmentation average = 18.9864
	minimum = 0
	maximum = 150
Injected packet rate average = 0.0117188
	minimum = 0.00825 (at node 15)
	maximum = 0.01575 (at node 50)
Accepted packet rate average = 0.0117695
	minimum = 0.008 (at node 10)
	maximum = 0.016 (at node 14)
Injected flit rate average = 0.234289
	minimum = 0.165 (at node 15)
	maximum = 0.31475 (at node 50)
Accepted flit rate average= 0.234711
	minimum = 0.16775 (at node 10)
	maximum = 0.312 (at node 14)
Injected packet length average = 19.9927
Accepted packet length average = 19.9423
Total in-flight flits = 1152 (1152 measured)
latency change    = 0.0191481
throughput change = 0.00287366
Draining all recorded packets ...
Draining remaining packets ...
Time taken is 7686 cycles
====== Overall Traffic Statistics ======
====== Traffic class 0 ======
Packet latency average = 94.5156 (1 samples)
	minimum = 25 (1 samples)
	maximum = 812 (1 samples)
Network latency average = 87.466 (1 samples)
	minimum = 25 (1 samples)
	maximum = 809 (1 samples)
Flit latency average = 57.9262 (1 samples)
	minimum = 6 (1 samples)
	maximum = 785 (1 samples)
Fragmentation average = 19.0156 (1 samples)
	minimum = 0 (1 samples)
	maximum = 150 (1 samples)
Injected packet rate average = 0.0117188 (1 samples)
	minimum = 0.00825 (1 samples)
	maximum = 0.01575 (1 samples)
Accepted packet rate average = 0.0117695 (1 samples)
	minimum = 0.008 (1 samples)
	maximum = 0.016 (1 samples)
Injected flit rate average = 0.234289 (1 samples)
	minimum = 0.165 (1 samples)
	maximum = 0.31475 (1 samples)
Accepted flit rate average = 0.234711 (1 samples)
	minimum = 0.16775 (1 samples)
	maximum = 0.312 (1 samples)
Injected packet size average = 19.9927 (1 samples)
Accepted packet size average = 19.9423 (1 samples)
Hops average = 6.23169 (1 samples)
Total run time 4.1568
