BEGIN Configuration File: ../../IL2236_project/verify/figure1/MAD/mesh88_lat
// $Id$

// Copyright (c) 2007-2015, Trustees of The Leland Stanford Junior University
// All rights reserved.
//
// Redistribution and use in source and binary forms, with or without
// modification, are permitted provided that the following conditions are met:
//
// Redistributions of source code must retain the above copyright notice, this
// list of conditions and the following disclaimer.
// Redistributions in binary form must reproduce the above copyright notice,
// this list of conditions and the following disclaimer in the documentation
// and/or other materials provided with the distribution.
//
// THIS SOFTWARE IS PROVIDED BY THE COPYRIGHT HOLDERS AND CONTRIBUTORS "AS IS"
// AND ANY EXPRESS OR IMPLIED WARRANTIES, INCLUDING, BUT NOT LIMITED TO, THE
// IMPLIED WARRANTIES OF MERCHANTABILITY AND FITNESS FOR A PARTICULAR PURPOSE
// ARE DISCLAIMED. IN NO EVENT SHALL THE COPYRIGHT OWNER OR CONTRIBUTORS BE
// LIABLE FOR ANY DIRECT, INDIRECT, INCIDENTAL, SPECIAL, EXEMPLARY, OR
// CONSEQUENTIAL DAMAGES (INCLUDING, BUT NOT LIMITED TO, PROCUREMENT OF
// SUBSTITUTE GOODS OR SERVICES; LOSS OF USE, DATA, OR PROFITS; OR BUSINESS
// INTERRUPTION) HOWEVER CAUSED AND ON ANY THEORY OF LIABILITY, WHETHER IN
// CONTRACT, STRICT LIABILITY, OR TORT (INCLUDING NEGLIGENCE OR OTHERWISE)
// ARISING IN ANY WAY OUT OF THE USE OF THIS SOFTWARE, EVEN IF ADVISED OF THE
// POSSIBILITY OF SUCH DAMAGE.

//8X8 mesh with 20 flits per packet under injection mode
//injection rate here is packet per cycle, NOT flit per cycle

// Topology

topology = mesh;
k = 8;
n = 2;

// Routing
routing_function = min_adapt;

// Flow control
num_vcs     = 8;
vc_buf_size = 8;
wait_for_tail_credit = 1;

// Router architecture
vc_allocator = islip;
sw_allocator = islip;
alloc_iters  = 1;

credit_delay   = 2;
routing_delay  = 0;
vc_alloc_delay = 1;
sw_alloc_delay = 1;

input_speedup     = 2;
output_speedup    = 1;
internal_speedup  = 1.0;


// Traffic
traffic = uniform;
packet_size = 20;


// Simulation
sim_type = latency;

injection_rate = .0130;


END Configuration File: ../../IL2236_project/verify/figure1/MAD/mesh88_lat
Class 0:
Packet latency average = 97.9718
	minimum = 25
	maximum = 511
Network latency average = 88.5524
	minimum = 25
	maximum = 487
Slowest packet = 159
Flit latency average = 58.1187
	minimum = 6
	maximum = 468
Slowest flit = 3186
Fragmentation average = 19.1196
	minimum = 0
	maximum = 157
Injected packet rate average = 0.0127812
	minimum = 0.007 (at node 16)
	maximum = 0.021 (at node 36)
Accepted packet rate average = 0.011625
	minimum = 0.005 (at node 54)
	maximum = 0.019 (at node 12)
Injected flit rate average = 0.253312
	minimum = 0.14 (at node 16)
	maximum = 0.415 (at node 36)
Accepted flit rate average= 0.237953
	minimum = 0.114 (at node 54)
	maximum = 0.399 (at node 12)
Injected packet length average = 19.8191
Accepted packet length average = 20.4691
Total in-flight flits = 1131 (0 measured)
latency change    = 1
throughput change = 1
Class 0:
Packet latency average = 99.9298
	minimum = 25
	maximum = 719
Network latency average = 91.5948
	minimum = 25
	maximum = 719
Slowest packet = 874
Flit latency average = 59.7315
	minimum = 6
	maximum = 700
Slowest flit = 17494
Fragmentation average = 21.3875
	minimum = 0
	maximum = 164
Injected packet rate average = 0.0129531
	minimum = 0.0085 (at node 8)
	maximum = 0.0185 (at node 0)
Accepted packet rate average = 0.0123594
	minimum = 0.008 (at node 29)
	maximum = 0.0185 (at node 27)
Injected flit rate average = 0.257234
	minimum = 0.17 (at node 8)
	maximum = 0.37 (at node 20)
Accepted flit rate average= 0.25018
	minimum = 0.16 (at node 29)
	maximum = 0.3775 (at node 27)
Injected packet length average = 19.8589
Accepted packet length average = 20.2421
Total in-flight flits = 1137 (0 measured)
latency change    = 0.0195944
throughput change = 0.0488711
Class 0:
Packet latency average = 95.7368
	minimum = 29
	maximum = 412
Network latency average = 86.7392
	minimum = 25
	maximum = 383
Slowest packet = 1802
Flit latency average = 55.6201
	minimum = 6
	maximum = 469
Slowest flit = 41910
Fragmentation average = 21.6926
	minimum = 0
	maximum = 103
Injected packet rate average = 0.0133281
	minimum = 0.005 (at node 7)
	maximum = 0.023 (at node 12)
Accepted packet rate average = 0.0130625
	minimum = 0.006 (at node 52)
	maximum = 0.024 (at node 47)
Injected flit rate average = 0.266203
	minimum = 0.1 (at node 7)
	maximum = 0.454 (at node 12)
Accepted flit rate average= 0.261672
	minimum = 0.12 (at node 52)
	maximum = 0.48 (at node 47)
Injected packet length average = 19.973
Accepted packet length average = 20.0323
Total in-flight flits = 1450 (0 measured)
latency change    = 0.0437971
throughput change = 0.0439183
Warmed up ...Time used is 3000 cycles
Class 0:
Packet latency average = 101.304
	minimum = 25
	maximum = 488
Network latency average = 90.0121
	minimum = 25
	maximum = 380
Slowest packet = 2522
Flit latency average = 63.4688
	minimum = 6
	maximum = 608
Slowest flit = 45520
Fragmentation average = 21.875
	minimum = 0
	maximum = 170
Injected packet rate average = 0.012875
	minimum = 0.006 (at node 33)
	maximum = 0.024 (at node 41)
Accepted packet rate average = 0.0130781
	minimum = 0.005 (at node 36)
	maximum = 0.026 (at node 22)
Injected flit rate average = 0.258937
	minimum = 0.12 (at node 33)
	maximum = 0.48 (at node 41)
Accepted flit rate average= 0.261297
	minimum = 0.1 (at node 36)
	maximum = 0.52 (at node 22)
Injected packet length average = 20.1117
Accepted packet length average = 19.9797
Total in-flight flits = 1207 (1207 measured)
latency change    = 0.0549528
throughput change = 0.00143515
Class 0:
Packet latency average = 105.252
	minimum = 25
	maximum = 728
Network latency average = 94.1013
	minimum = 25
	maximum = 707
Slowest packet = 3343
Flit latency average = 64.1524
	minimum = 6
	maximum = 687
Slowest flit = 66868
Fragmentation average = 23.2792
	minimum = 0
	maximum = 170
Injected packet rate average = 0.012625
	minimum = 0.0075 (at node 14)
	maximum = 0.021 (at node 30)
Accepted packet rate average = 0.0127578
	minimum = 0.006 (at node 23)
	maximum = 0.02 (at node 22)
Injected flit rate average = 0.253352
	minimum = 0.15 (at node 14)
	maximum = 0.4285 (at node 30)
Accepted flit rate average= 0.254445
	minimum = 0.12 (at node 23)
	maximum = 0.4 (at node 22)
Injected packet length average = 20.0675
Accepted packet length average = 19.9443
Total in-flight flits = 1201 (1201 measured)
latency change    = 0.0375117
throughput change = 0.0269274
Class 0:
Packet latency average = 107.221
	minimum = 25
	maximum = 1084
Network latency average = 96.3463
	minimum = 25
	maximum = 887
Slowest packet = 3691
Flit latency average = 64.8456
	minimum = 6
	maximum = 868
Slowest flit = 73820
Fragmentation average = 24.2547
	minimum = 0
	maximum = 170
Injected packet rate average = 0.0126094
	minimum = 0.00766667 (at node 56)
	maximum = 0.019 (at node 30)
Accepted packet rate average = 0.0127552
	minimum = 0.00866667 (at node 10)
	maximum = 0.017 (at node 34)
Injected flit rate average = 0.25249
	minimum = 0.157333 (at node 56)
	maximum = 0.385667 (at node 30)
Accepted flit rate average= 0.254271
	minimum = 0.173333 (at node 10)
	maximum = 0.34 (at node 34)
Injected packet length average = 20.024
Accepted packet length average = 19.9347
Total in-flight flits = 1050 (1050 measured)
latency change    = 0.0183618
throughput change = 0.000686194
Class 0:
Packet latency average = 105.139
	minimum = 25
	maximum = 1084
Network latency average = 95.3525
	minimum = 25
	maximum = 887
Slowest packet = 3691
Flit latency average = 63.6458
	minimum = 6
	maximum = 868
Slowest flit = 73820
Fragmentation average = 23.9915
	minimum = 0
	maximum = 170
Injected packet rate average = 0.0127109
	minimum = 0.00875 (at node 17)
	maximum = 0.0165 (at node 30)
Accepted packet rate average = 0.0127852
	minimum = 0.0095 (at node 10)
	maximum = 0.0165 (at node 22)
Injected flit rate average = 0.254148
	minimum = 0.1745 (at node 56)
	maximum = 0.33325 (at node 30)
Accepted flit rate average= 0.255031
	minimum = 0.19 (at node 10)
	maximum = 0.33 (at node 22)
Injected packet length average = 19.9945
Accepted packet length average = 19.9474
Total in-flight flits = 1242 (1242 measured)
latency change    = 0.0197966
throughput change = 0.00298166
Draining all recorded packets ...
Draining remaining packets ...
Time taken is 7494 cycles
====== Overall Traffic Statistics ======
====== Traffic class 0 ======
Packet latency average = 105.883 (1 samples)
	minimum = 25 (1 samples)
	maximum = 1084 (1 samples)
Network latency average = 96.077 (1 samples)
	minimum = 25 (1 samples)
	maximum = 887 (1 samples)
Flit latency average = 63.8934 (1 samples)
	minimum = 6 (1 samples)
	maximum = 868 (1 samples)
Fragmentation average = 23.8494 (1 samples)
	minimum = 0 (1 samples)
	maximum = 170 (1 samples)
Injected packet rate average = 0.0127109 (1 samples)
	minimum = 0.00875 (1 samples)
	maximum = 0.0165 (1 samples)
Accepted packet rate average = 0.0127852 (1 samples)
	minimum = 0.0095 (1 samples)
	maximum = 0.0165 (1 samples)
Injected flit rate average = 0.254148 (1 samples)
	minimum = 0.1745 (1 samples)
	maximum = 0.33325 (1 samples)
Accepted flit rate average = 0.255031 (1 samples)
	minimum = 0.19 (1 samples)
	maximum = 0.33 (1 samples)
Injected packet size average = 19.9945 (1 samples)
Accepted packet size average = 19.9474 (1 samples)
Hops average = 6.34621 (1 samples)
Total run time 4.34023
