BEGIN Configuration File: ../../IL2236_project/verify/figure1/MAD/mesh88_lat
// $Id$

// Copyright (c) 2007-2015, Trustees of The Leland Stanford Junior University
// All rights reserved.
//
// Redistribution and use in source and binary forms, with or without
// modification, are permitted provided that the following conditions are met:
//
// Redistributions of source code must retain the above copyright notice, this
// list of conditions and the following disclaimer.
// Redistributions in binary form must reproduce the above copyright notice,
// this list of conditions and the following disclaimer in the documentation
// and/or other materials provided with the distribution.
//
// THIS SOFTWARE IS PROVIDED BY THE COPYRIGHT HOLDERS AND CONTRIBUTORS "AS IS"
// AND ANY EXPRESS OR IMPLIED WARRANTIES, INCLUDING, BUT NOT LIMITED TO, THE
// IMPLIED WARRANTIES OF MERCHANTABILITY AND FITNESS FOR A PARTICULAR PURPOSE
// ARE DISCLAIMED. IN NO EVENT SHALL THE COPYRIGHT OWNER OR CONTRIBUTORS BE
// LIABLE FOR ANY DIRECT, INDIRECT, INCIDENTAL, SPECIAL, EXEMPLARY, OR
// CONSEQUENTIAL DAMAGES (INCLUDING, BUT NOT LIMITED TO, PROCUREMENT OF
// SUBSTITUTE GOODS OR SERVICES; LOSS OF USE, DATA, OR PROFITS; OR BUSINESS
// INTERRUPTION) HOWEVER CAUSED AND ON ANY THEORY OF LIABILITY, WHETHER IN
// CONTRACT, STRICT LIABILITY, OR TORT (INCLUDING NEGLIGENCE OR OTHERWISE)
// ARISING IN ANY WAY OUT OF THE USE OF THIS SOFTWARE, EVEN IF ADVISED OF THE
// POSSIBILITY OF SUCH DAMAGE.

//8X8 mesh with 20 flits per packet under injection mode
//injection rate here is packet per cycle, NOT flit per cycle

// Topology

topology = mesh;
k = 8;
n = 2;

// Routing
routing_function = min_adapt;

// Flow control
num_vcs     = 8;
vc_buf_size = 8;
wait_for_tail_credit = 1;

// Router architecture
vc_allocator = islip;
sw_allocator = islip;
alloc_iters  = 1;

credit_delay   = 2;
routing_delay  = 0;
vc_alloc_delay = 1;
sw_alloc_delay = 1;

input_speedup     = 2;
output_speedup    = 1;
internal_speedup  = 1.0;


// Traffic
traffic = uniform;
packet_size = 20;


// Simulation
sim_type = latency;

injection_rate = .0140;


END Configuration File: ../../IL2236_project/verify/figure1/MAD/mesh88_lat
Class 0:
Packet latency average = 117.221
	minimum = 25
	maximum = 700
Network latency average = 99.8717
	minimum = 25
	maximum = 700
Slowest packet = 185
Flit latency average = 66.2777
	minimum = 6
	maximum = 645
Slowest flit = 3715
Fragmentation average = 24.892
	minimum = 0
	maximum = 116
Injected packet rate average = 0.0139219
	minimum = 0.008 (at node 9)
	maximum = 0.023 (at node 19)
Accepted packet rate average = 0.0122969
	minimum = 0.006 (at node 54)
	maximum = 0.022 (at node 12)
Injected flit rate average = 0.274703
	minimum = 0.16 (at node 9)
	maximum = 0.46 (at node 19)
Accepted flit rate average= 0.252937
	minimum = 0.12 (at node 54)
	maximum = 0.44 (at node 12)
Injected packet length average = 19.7318
Accepted packet length average = 20.5693
Total in-flight flits = 1632 (0 measured)
latency change    = 1
throughput change = 1
Class 0:
Packet latency average = 121.806
	minimum = 25
	maximum = 995
Network latency average = 106.586
	minimum = 25
	maximum = 995
Slowest packet = 538
Flit latency average = 70.9172
	minimum = 6
	maximum = 976
Slowest flit = 10779
Fragmentation average = 28.2879
	minimum = 0
	maximum = 178
Injected packet rate average = 0.0140547
	minimum = 0.009 (at node 10)
	maximum = 0.02 (at node 48)
Accepted packet rate average = 0.0131875
	minimum = 0.0085 (at node 29)
	maximum = 0.0185 (at node 27)
Injected flit rate average = 0.278953
	minimum = 0.18 (at node 10)
	maximum = 0.4 (at node 48)
Accepted flit rate average= 0.268383
	minimum = 0.17 (at node 29)
	maximum = 0.377 (at node 27)
Injected packet length average = 19.8477
Accepted packet length average = 20.3513
Total in-flight flits = 1627 (0 measured)
latency change    = 0.0376433
throughput change = 0.0575496
Class 0:
Packet latency average = 113.484
	minimum = 25
	maximum = 603
Network latency average = 102.571
	minimum = 25
	maximum = 563
Slowest packet = 1696
Flit latency average = 66.8417
	minimum = 6
	maximum = 538
Slowest flit = 33935
Fragmentation average = 29.791
	minimum = 0
	maximum = 158
Injected packet rate average = 0.0140781
	minimum = 0.007 (at node 22)
	maximum = 0.024 (at node 9)
Accepted packet rate average = 0.0142031
	minimum = 0.007 (at node 52)
	maximum = 0.028 (at node 47)
Injected flit rate average = 0.281953
	minimum = 0.136 (at node 51)
	maximum = 0.465 (at node 9)
Accepted flit rate average= 0.280641
	minimum = 0.124 (at node 52)
	maximum = 0.491 (at node 47)
Injected packet length average = 20.0277
Accepted packet length average = 19.7591
Total in-flight flits = 1686 (0 measured)
latency change    = 0.0733339
throughput change = 0.043678
Warmed up ...Time used is 3000 cycles
Class 0:
Packet latency average = 103.341
	minimum = 25
	maximum = 591
Network latency average = 90.9335
	minimum = 25
	maximum = 591
Slowest packet = 2786
Flit latency average = 65.4178
	minimum = 6
	maximum = 742
Slowest flit = 52436
Fragmentation average = 26.4741
	minimum = 0
	maximum = 173
Injected packet rate average = 0.0137969
	minimum = 0.005 (at node 41)
	maximum = 0.024 (at node 4)
Accepted packet rate average = 0.0142969
	minimum = 0.006 (at node 47)
	maximum = 0.027 (at node 22)
Injected flit rate average = 0.277313
	minimum = 0.1 (at node 41)
	maximum = 0.48 (at node 4)
Accepted flit rate average= 0.285594
	minimum = 0.14 (at node 23)
	maximum = 0.539 (at node 22)
Injected packet length average = 20.0997
Accepted packet length average = 19.976
Total in-flight flits = 1068 (1068 measured)
latency change    = 0.0981498
throughput change = 0.0173433
Class 0:
Packet latency average = 102.017
	minimum = 25
	maximum = 591
Network latency average = 91.1695
	minimum = 25
	maximum = 591
Slowest packet = 2786
Flit latency average = 61.8044
	minimum = 6
	maximum = 742
Slowest flit = 52436
Fragmentation average = 25.576
	minimum = 0
	maximum = 173
Injected packet rate average = 0.0136406
	minimum = 0.009 (at node 33)
	maximum = 0.0195 (at node 43)
Accepted packet rate average = 0.0137578
	minimum = 0.0085 (at node 23)
	maximum = 0.0195 (at node 16)
Injected flit rate average = 0.2735
	minimum = 0.1805 (at node 51)
	maximum = 0.3835 (at node 43)
Accepted flit rate average= 0.275906
	minimum = 0.163 (at node 30)
	maximum = 0.3985 (at node 22)
Injected packet length average = 20.0504
Accepted packet length average = 20.0545
Total in-flight flits = 1290 (1290 measured)
latency change    = 0.0129806
throughput change = 0.0351116
Class 0:
Packet latency average = 107.236
	minimum = 25
	maximum = 836
Network latency average = 93.8046
	minimum = 25
	maximum = 836
Slowest packet = 4047
Flit latency average = 62.9753
	minimum = 6
	maximum = 814
Slowest flit = 80957
Fragmentation average = 25.1636
	minimum = 0
	maximum = 173
Injected packet rate average = 0.0136198
	minimum = 0.00966667 (at node 19)
	maximum = 0.0183333 (at node 55)
Accepted packet rate average = 0.0137813
	minimum = 0.0103333 (at node 10)
	maximum = 0.0186667 (at node 51)
Injected flit rate average = 0.272359
	minimum = 0.193333 (at node 31)
	maximum = 0.362 (at node 55)
Accepted flit rate average= 0.275255
	minimum = 0.202 (at node 30)
	maximum = 0.374333 (at node 51)
Injected packet length average = 19.9973
Accepted packet length average = 19.9732
Total in-flight flits = 1137 (1137 measured)
latency change    = 0.0486654
throughput change = 0.00236523
Class 0:
Packet latency average = 106.811
	minimum = 25
	maximum = 836
Network latency average = 93.6646
	minimum = 25
	maximum = 836
Slowest packet = 4047
Flit latency average = 62.1268
	minimum = 6
	maximum = 814
Slowest flit = 80957
Fragmentation average = 25.3463
	minimum = 0
	maximum = 173
Injected packet rate average = 0.0136719
	minimum = 0.01075 (at node 19)
	maximum = 0.0175 (at node 24)
Accepted packet rate average = 0.0137031
	minimum = 0.0105 (at node 18)
	maximum = 0.0175 (at node 14)
Injected flit rate average = 0.273316
	minimum = 0.21675 (at node 19)
	maximum = 0.34975 (at node 24)
Accepted flit rate average= 0.274133
	minimum = 0.2095 (at node 54)
	maximum = 0.34925 (at node 51)
Injected packet length average = 19.9911
Accepted packet length average = 20.0051
Total in-flight flits = 1508 (1508 measured)
latency change    = 0.00397326
throughput change = 0.00409435
Draining all recorded packets ...
Draining remaining packets ...
Time taken is 7793 cycles
====== Overall Traffic Statistics ======
====== Traffic class 0 ======
Packet latency average = 109.112 (1 samples)
	minimum = 25 (1 samples)
	maximum = 836 (1 samples)
Network latency average = 95.8305 (1 samples)
	minimum = 25 (1 samples)
	maximum = 836 (1 samples)
Flit latency average = 63.5443 (1 samples)
	minimum = 6 (1 samples)
	maximum = 814 (1 samples)
Fragmentation average = 25.8536 (1 samples)
	minimum = 0 (1 samples)
	maximum = 173 (1 samples)
Injected packet rate average = 0.0136719 (1 samples)
	minimum = 0.01075 (1 samples)
	maximum = 0.0175 (1 samples)
Accepted packet rate average = 0.0137031 (1 samples)
	minimum = 0.0105 (1 samples)
	maximum = 0.0175 (1 samples)
Injected flit rate average = 0.273316 (1 samples)
	minimum = 0.21675 (1 samples)
	maximum = 0.34975 (1 samples)
Accepted flit rate average = 0.274133 (1 samples)
	minimum = 0.2095 (1 samples)
	maximum = 0.34925 (1 samples)
Injected packet size average = 19.9911 (1 samples)
Accepted packet size average = 20.0051 (1 samples)
Hops average = 6.18969 (1 samples)
Total run time 4.86224
