BEGIN Configuration File: ../../IL2236_project/verify/figure1/MAD/mesh88_lat
// $Id$

// Copyright (c) 2007-2015, Trustees of The Leland Stanford Junior University
// All rights reserved.
//
// Redistribution and use in source and binary forms, with or without
// modification, are permitted provided that the following conditions are met:
//
// Redistributions of source code must retain the above copyright notice, this
// list of conditions and the following disclaimer.
// Redistributions in binary form must reproduce the above copyright notice,
// this list of conditions and the following disclaimer in the documentation
// and/or other materials provided with the distribution.
//
// THIS SOFTWARE IS PROVIDED BY THE COPYRIGHT HOLDERS AND CONTRIBUTORS "AS IS"
// AND ANY EXPRESS OR IMPLIED WARRANTIES, INCLUDING, BUT NOT LIMITED TO, THE
// IMPLIED WARRANTIES OF MERCHANTABILITY AND FITNESS FOR A PARTICULAR PURPOSE
// ARE DISCLAIMED. IN NO EVENT SHALL THE COPYRIGHT OWNER OR CONTRIBUTORS BE
// LIABLE FOR ANY DIRECT, INDIRECT, INCIDENTAL, SPECIAL, EXEMPLARY, OR
// CONSEQUENTIAL DAMAGES (INCLUDING, BUT NOT LIMITED TO, PROCUREMENT OF
// SUBSTITUTE GOODS OR SERVICES; LOSS OF USE, DATA, OR PROFITS; OR BUSINESS
// INTERRUPTION) HOWEVER CAUSED AND ON ANY THEORY OF LIABILITY, WHETHER IN
// CONTRACT, STRICT LIABILITY, OR TORT (INCLUDING NEGLIGENCE OR OTHERWISE)
// ARISING IN ANY WAY OUT OF THE USE OF THIS SOFTWARE, EVEN IF ADVISED OF THE
// POSSIBILITY OF SUCH DAMAGE.

//8X8 mesh with 20 flits per packet under injection mode
//injection rate here is packet per cycle, NOT flit per cycle

// Topology

topology = mesh;
k = 8;
n = 2;

// Routing
routing_function = min_adapt;

// Flow control
num_vcs     = 8;
vc_buf_size = 8;
wait_for_tail_credit = 1;

// Router architecture
vc_allocator = islip;
sw_allocator = islip;
alloc_iters  = 1;

credit_delay   = 2;
routing_delay  = 0;
vc_alloc_delay = 1;
sw_alloc_delay = 1;

input_speedup     = 2;
output_speedup    = 1;
internal_speedup  = 1.0;


// Traffic
traffic = uniform;
packet_size = 20;


// Simulation
sim_type = latency;

injection_rate = .0170;


END Configuration File: ../../IL2236_project/verify/figure1/MAD/mesh88_lat
Class 0:
Packet latency average = 126.943
	minimum = 25
	maximum = 784
Network latency average = 109.625
	minimum = 25
	maximum = 761
Slowest packet = 230
Flit latency average = 70.5068
	minimum = 6
	maximum = 769
Slowest flit = 4540
Fragmentation average = 36.3705
	minimum = 0
	maximum = 219
Injected packet rate average = 0.0164688
	minimum = 0.008 (at node 14)
	maximum = 0.028 (at node 9)
Accepted packet rate average = 0.0144219
	minimum = 0.007 (at node 54)
	maximum = 0.024 (at node 12)
Injected flit rate average = 0.326141
	minimum = 0.156 (at node 14)
	maximum = 0.546 (at node 9)
Accepted flit rate average= 0.300031
	minimum = 0.14 (at node 54)
	maximum = 0.494 (at node 12)
Injected packet length average = 19.8036
Accepted packet length average = 20.8039
Total in-flight flits = 1878 (0 measured)
latency change    = 1
throughput change = 1
Class 0:
Packet latency average = 152.343
	minimum = 25
	maximum = 1253
Network latency average = 121.257
	minimum = 25
	maximum = 1238
Slowest packet = 645
Flit latency average = 78.6656
	minimum = 6
	maximum = 1191
Slowest flit = 12915
Fragmentation average = 40.4885
	minimum = 0
	maximum = 250
Injected packet rate average = 0.0166406
	minimum = 0.011 (at node 8)
	maximum = 0.0245 (at node 4)
Accepted packet rate average = 0.0152891
	minimum = 0.009 (at node 29)
	maximum = 0.0215 (at node 27)
Injected flit rate average = 0.330289
	minimum = 0.213 (at node 8)
	maximum = 0.4805 (at node 4)
Accepted flit rate average= 0.313469
	minimum = 0.1915 (at node 29)
	maximum = 0.4365 (at node 27)
Injected packet length average = 19.8484
Accepted packet length average = 20.5028
Total in-flight flits = 2476 (0 measured)
latency change    = 0.166731
throughput change = 0.0428671
Class 0:
Packet latency average = 198.758
	minimum = 25
	maximum = 1536
Network latency average = 142.108
	minimum = 25
	maximum = 1519
Slowest packet = 603
Flit latency average = 93.6409
	minimum = 6
	maximum = 1489
Slowest flit = 12070
Fragmentation average = 52.6053
	minimum = 0
	maximum = 230
Injected packet rate average = 0.0169063
	minimum = 0.008 (at node 3)
	maximum = 0.028 (at node 40)
Accepted packet rate average = 0.0171406
	minimum = 0.008 (at node 52)
	maximum = 0.026 (at node 50)
Injected flit rate average = 0.337484
	minimum = 0.141 (at node 15)
	maximum = 0.563 (at node 40)
Accepted flit rate average= 0.338344
	minimum = 0.183 (at node 52)
	maximum = 0.53 (at node 22)
Injected packet length average = 19.9621
Accepted packet length average = 19.7393
Total in-flight flits = 2462 (0 measured)
latency change    = 0.233524
throughput change = 0.0735199
Warmed up ...Time used is 3000 cycles
Class 0:
Packet latency average = 189.426
	minimum = 27
	maximum = 1298
Network latency average = 136.995
	minimum = 26
	maximum = 898
Slowest packet = 3224
Flit latency average = 101.839
	minimum = 6
	maximum = 1475
Slowest flit = 39579
Fragmentation average = 58.8272
	minimum = 0
	maximum = 212
Injected packet rate average = 0.0174844
	minimum = 0.01 (at node 20)
	maximum = 0.028 (at node 8)
Accepted packet rate average = 0.0173438
	minimum = 0.006 (at node 23)
	maximum = 0.027 (at node 16)
Injected flit rate average = 0.350813
	minimum = 0.214 (at node 20)
	maximum = 0.56 (at node 8)
Accepted flit rate average= 0.351141
	minimum = 0.154 (at node 23)
	maximum = 0.504 (at node 16)
Injected packet length average = 20.0643
Accepted packet length average = 20.2459
Total in-flight flits = 2369 (2309 measured)
latency change    = 0.0492611
throughput change = 0.0364437
Class 0:
Packet latency average = 178.136
	minimum = 25
	maximum = 1885
Network latency average = 134.511
	minimum = 25
	maximum = 1352
Slowest packet = 3558
Flit latency average = 97.1112
	minimum = 6
	maximum = 1895
Slowest flit = 46568
Fragmentation average = 52.201
	minimum = 0
	maximum = 212
Injected packet rate average = 0.0168203
	minimum = 0.0125 (at node 32)
	maximum = 0.025 (at node 0)
Accepted packet rate average = 0.0168594
	minimum = 0.0115 (at node 20)
	maximum = 0.0225 (at node 14)
Injected flit rate average = 0.336336
	minimum = 0.2475 (at node 55)
	maximum = 0.504 (at node 0)
Accepted flit rate average= 0.33807
	minimum = 0.2335 (at node 30)
	maximum = 0.451 (at node 14)
Injected packet length average = 19.9958
Accepted packet length average = 20.0524
Total in-flight flits = 2249 (2249 measured)
latency change    = 0.0633795
throughput change = 0.0386615
Class 0:
Packet latency average = 178.313
	minimum = 25
	maximum = 1885
Network latency average = 134.982
	minimum = 25
	maximum = 1422
Slowest packet = 3558
Flit latency average = 94.2337
	minimum = 6
	maximum = 1895
Slowest flit = 46568
Fragmentation average = 50.768
	minimum = 0
	maximum = 212
Injected packet rate average = 0.016599
	minimum = 0.01 (at node 13)
	maximum = 0.0206667 (at node 7)
Accepted packet rate average = 0.0166719
	minimum = 0.0123333 (at node 10)
	maximum = 0.0223333 (at node 34)
Injected flit rate average = 0.332521
	minimum = 0.199333 (at node 13)
	maximum = 0.415333 (at node 7)
Accepted flit rate average= 0.333443
	minimum = 0.252 (at node 10)
	maximum = 0.441333 (at node 34)
Injected packet length average = 20.0326
Accepted packet length average = 20.0003
Total in-flight flits = 2181 (2181 measured)
latency change    = 0.000991791
throughput change = 0.0138783
Class 0:
Packet latency average = 191.717
	minimum = 25
	maximum = 2254
Network latency average = 134.716
	minimum = 25
	maximum = 1851
Slowest packet = 3558
Flit latency average = 93.0853
	minimum = 6
	maximum = 1895
Slowest flit = 46568
Fragmentation average = 48.888
	minimum = 0
	maximum = 212
Injected packet rate average = 0.0167461
	minimum = 0.0135 (at node 52)
	maximum = 0.02075 (at node 59)
Accepted packet rate average = 0.0166914
	minimum = 0.013 (at node 18)
	maximum = 0.0215 (at node 24)
Injected flit rate average = 0.335266
	minimum = 0.274 (at node 52)
	maximum = 0.4185 (at node 60)
Accepted flit rate average= 0.334773
	minimum = 0.261 (at node 18)
	maximum = 0.42825 (at node 24)
Injected packet length average = 20.0205
Accepted packet length average = 20.0566
Total in-flight flits = 2500 (2500 measured)
latency change    = 0.0699146
throughput change = 0.00397501
Class 0:
Packet latency average = 191.482
	minimum = 25
	maximum = 2254
Network latency average = 135.796
	minimum = 25
	maximum = 1851
Slowest packet = 3558
Flit latency average = 92.7866
	minimum = 6
	maximum = 1895
Slowest flit = 46568
Fragmentation average = 49.7091
	minimum = 0
	maximum = 270
Injected packet rate average = 0.0168469
	minimum = 0.0136 (at node 13)
	maximum = 0.0204 (at node 27)
Accepted packet rate average = 0.0168656
	minimum = 0.0138 (at node 10)
	maximum = 0.0212 (at node 24)
Injected flit rate average = 0.337116
	minimum = 0.2736 (at node 13)
	maximum = 0.4084 (at node 27)
Accepted flit rate average= 0.337178
	minimum = 0.276 (at node 10)
	maximum = 0.4206 (at node 24)
Injected packet length average = 20.0106
Accepted packet length average = 19.992
Total in-flight flits = 2385 (2385 measured)
latency change    = 0.00122662
throughput change = 0.0071318
Class 0:
Packet latency average = 190.571
	minimum = 25
	maximum = 2254
Network latency average = 134.783
	minimum = 25
	maximum = 1851
Slowest packet = 3558
Flit latency average = 91.512
	minimum = 6
	maximum = 1895
Slowest flit = 46568
Fragmentation average = 48.575
	minimum = 0
	maximum = 270
Injected packet rate average = 0.016862
	minimum = 0.0135 (at node 53)
	maximum = 0.0208333 (at node 59)
Accepted packet rate average = 0.0169141
	minimum = 0.014 (at node 62)
	maximum = 0.0205 (at node 14)
Injected flit rate average = 0.337424
	minimum = 0.270667 (at node 53)
	maximum = 0.415 (at node 59)
Accepted flit rate average= 0.338164
	minimum = 0.286667 (at node 4)
	maximum = 0.412 (at node 14)
Injected packet length average = 20.011
Accepted packet length average = 19.9931
Total in-flight flits = 2107 (2107 measured)
latency change    = 0.00478119
throughput change = 0.00291556
Class 0:
Packet latency average = 187.066
	minimum = 25
	maximum = 2254
Network latency average = 133.939
	minimum = 25
	maximum = 1851
Slowest packet = 3558
Flit latency average = 90.4456
	minimum = 6
	maximum = 1895
Slowest flit = 46568
Fragmentation average = 48.2859
	minimum = 0
	maximum = 270
Injected packet rate average = 0.016846
	minimum = 0.0138571 (at node 22)
	maximum = 0.0202857 (at node 7)
Accepted packet rate average = 0.0169375
	minimum = 0.0141429 (at node 10)
	maximum = 0.0202857 (at node 14)
Injected flit rate average = 0.337167
	minimum = 0.276571 (at node 22)
	maximum = 0.406571 (at node 7)
Accepted flit rate average= 0.338183
	minimum = 0.285286 (at node 10)
	maximum = 0.405 (at node 14)
Injected packet length average = 20.0147
Accepted packet length average = 19.9665
Total in-flight flits = 1896 (1896 measured)
latency change    = 0.0187327
throughput change = 5.61034e-05
Draining all recorded packets ...
Class 0:
Remaining flits: 208240 208241 208242 208243 208244 208245 208246 208247 208248 208249 [...] (2337 flits)
Measured flits: 208240 208241 208242 208243 208244 208245 208246 208247 208248 208249 [...] (80 flits)
Draining remaining packets ...
Time taken is 11470 cycles
====== Overall Traffic Statistics ======
====== Traffic class 0 ======
Packet latency average = 192.882 (1 samples)
	minimum = 25 (1 samples)
	maximum = 2254 (1 samples)
Network latency average = 136.469 (1 samples)
	minimum = 25 (1 samples)
	maximum = 1851 (1 samples)
Flit latency average = 91.6187 (1 samples)
	minimum = 6 (1 samples)
	maximum = 1895 (1 samples)
Fragmentation average = 48.1029 (1 samples)
	minimum = 0 (1 samples)
	maximum = 270 (1 samples)
Injected packet rate average = 0.016846 (1 samples)
	minimum = 0.0138571 (1 samples)
	maximum = 0.0202857 (1 samples)
Accepted packet rate average = 0.0169375 (1 samples)
	minimum = 0.0141429 (1 samples)
	maximum = 0.0202857 (1 samples)
Injected flit rate average = 0.337167 (1 samples)
	minimum = 0.276571 (1 samples)
	maximum = 0.406571 (1 samples)
Accepted flit rate average = 0.338183 (1 samples)
	minimum = 0.285286 (1 samples)
	maximum = 0.405 (1 samples)
Injected packet size average = 20.0147 (1 samples)
Accepted packet size average = 19.9665 (1 samples)
Hops average = 6.27616 (1 samples)
Total run time 9.05292
