BEGIN Configuration File: ../../IL2236_project/verify/figure1/MAD/mesh88_lat
// $Id$

// Copyright (c) 2007-2015, Trustees of The Leland Stanford Junior University
// All rights reserved.
//
// Redistribution and use in source and binary forms, with or without
// modification, are permitted provided that the following conditions are met:
//
// Redistributions of source code must retain the above copyright notice, this
// list of conditions and the following disclaimer.
// Redistributions in binary form must reproduce the above copyright notice,
// this list of conditions and the following disclaimer in the documentation
// and/or other materials provided with the distribution.
//
// THIS SOFTWARE IS PROVIDED BY THE COPYRIGHT HOLDERS AND CONTRIBUTORS "AS IS"
// AND ANY EXPRESS OR IMPLIED WARRANTIES, INCLUDING, BUT NOT LIMITED TO, THE
// IMPLIED WARRANTIES OF MERCHANTABILITY AND FITNESS FOR A PARTICULAR PURPOSE
// ARE DISCLAIMED. IN NO EVENT SHALL THE COPYRIGHT OWNER OR CONTRIBUTORS BE
// LIABLE FOR ANY DIRECT, INDIRECT, INCIDENTAL, SPECIAL, EXEMPLARY, OR
// CONSEQUENTIAL DAMAGES (INCLUDING, BUT NOT LIMITED TO, PROCUREMENT OF
// SUBSTITUTE GOODS OR SERVICES; LOSS OF USE, DATA, OR PROFITS; OR BUSINESS
// INTERRUPTION) HOWEVER CAUSED AND ON ANY THEORY OF LIABILITY, WHETHER IN
// CONTRACT, STRICT LIABILITY, OR TORT (INCLUDING NEGLIGENCE OR OTHERWISE)
// ARISING IN ANY WAY OUT OF THE USE OF THIS SOFTWARE, EVEN IF ADVISED OF THE
// POSSIBILITY OF SUCH DAMAGE.

//8X8 mesh with 20 flits per packet under injection mode
//injection rate here is packet per cycle, NOT flit per cycle

// Topology

topology = mesh;
k = 8;
n = 2;

// Routing
routing_function = min_adapt;

// Flow control
num_vcs     = 8;
vc_buf_size = 8;
wait_for_tail_credit = 1;

// Router architecture
vc_allocator = islip;
sw_allocator = islip;
alloc_iters  = 1;

credit_delay   = 2;
routing_delay  = 0;
vc_alloc_delay = 1;
sw_alloc_delay = 1;

input_speedup     = 2;
output_speedup    = 1;
internal_speedup  = 1.0;


// Traffic
traffic = uniform;
packet_size = 20;


// Simulation
sim_type = latency;

injection_rate = .0185;


END Configuration File: ../../IL2236_project/verify/figure1/MAD/mesh88_lat
Class 0:
Packet latency average = 142.82
	minimum = 25
	maximum = 615
Network latency average = 113.158
	minimum = 25
	maximum = 604
Slowest packet = 223
Flit latency average = 71.49
	minimum = 6
	maximum = 579
Slowest flit = 4475
Fragmentation average = 38.5597
	minimum = 0
	maximum = 238
Injected packet rate average = 0.0174688
	minimum = 0.005 (at node 24)
	maximum = 0.025 (at node 20)
Accepted packet rate average = 0.0154375
	minimum = 0.007 (at node 54)
	maximum = 0.023 (at node 12)
Injected flit rate average = 0.345578
	minimum = 0.1 (at node 24)
	maximum = 0.5 (at node 20)
Accepted flit rate average= 0.319031
	minimum = 0.16 (at node 43)
	maximum = 0.484 (at node 12)
Injected packet length average = 19.7826
Accepted packet length average = 20.666
Total in-flight flits = 1942 (0 measured)
latency change    = 1
throughput change = 1
Class 0:
Packet latency average = 169.053
	minimum = 25
	maximum = 1342
Network latency average = 123.407
	minimum = 25
	maximum = 1342
Slowest packet = 230
Flit latency average = 79.6968
	minimum = 6
	maximum = 1720
Slowest flit = 5637
Fragmentation average = 43.4407
	minimum = 0
	maximum = 238
Injected packet rate average = 0.0174297
	minimum = 0.007 (at node 56)
	maximum = 0.0235 (at node 49)
Accepted packet rate average = 0.0160078
	minimum = 0.01 (at node 29)
	maximum = 0.021 (at node 27)
Injected flit rate average = 0.346391
	minimum = 0.1345 (at node 56)
	maximum = 0.4615 (at node 49)
Accepted flit rate average= 0.327695
	minimum = 0.203 (at node 29)
	maximum = 0.435 (at node 39)
Injected packet length average = 19.8736
Accepted packet length average = 20.471
Total in-flight flits = 2675 (0 measured)
latency change    = 0.155178
throughput change = 0.0264394
Class 0:
Packet latency average = 264.434
	minimum = 25
	maximum = 1815
Network latency average = 143.537
	minimum = 25
	maximum = 1745
Slowest packet = 281
Flit latency average = 92.4595
	minimum = 6
	maximum = 1726
Slowest flit = 5639
Fragmentation average = 57.2303
	minimum = 0
	maximum = 238
Injected packet rate average = 0.0187187
	minimum = 0.007 (at node 54)
	maximum = 0.03 (at node 52)
Accepted packet rate average = 0.0187969
	minimum = 0.011 (at node 17)
	maximum = 0.028 (at node 22)
Injected flit rate average = 0.374828
	minimum = 0.138 (at node 54)
	maximum = 0.601 (at node 52)
Accepted flit rate average= 0.375156
	minimum = 0.24 (at node 25)
	maximum = 0.594 (at node 22)
Injected packet length average = 20.0242
Accepted packet length average = 19.9584
Total in-flight flits = 2625 (0 measured)
latency change    = 0.360698
throughput change = 0.12651
Warmed up ...Time used is 3000 cycles
Class 0:
Packet latency average = 223.959
	minimum = 25
	maximum = 1178
Network latency average = 126.499
	minimum = 25
	maximum = 805
Slowest packet = 3438
Flit latency average = 103.546
	minimum = 6
	maximum = 1534
Slowest flit = 46559
Fragmentation average = 54.351
	minimum = 0
	maximum = 243
Injected packet rate average = 0.0171094
	minimum = 0 (at node 7)
	maximum = 0.027 (at node 40)
Accepted packet rate average = 0.0170313
	minimum = 0.01 (at node 15)
	maximum = 0.029 (at node 51)
Injected flit rate average = 0.341109
	minimum = 0 (at node 7)
	maximum = 0.523 (at node 37)
Accepted flit rate average= 0.340797
	minimum = 0.2 (at node 30)
	maximum = 0.613 (at node 51)
Injected packet length average = 19.937
Accepted packet length average = 20.0101
Total in-flight flits = 2714 (2514 measured)
latency change    = 0.180726
throughput change = 0.100821
Class 0:
Packet latency average = 267.776
	minimum = 25
	maximum = 2134
Network latency average = 141.785
	minimum = 25
	maximum = 1618
Slowest packet = 3438
Flit latency average = 107.681
	minimum = 6
	maximum = 2205
Slowest flit = 63514
Fragmentation average = 57.8195
	minimum = 0
	maximum = 243
Injected packet rate average = 0.0176719
	minimum = 0.0095 (at node 56)
	maximum = 0.0265 (at node 40)
Accepted packet rate average = 0.0175937
	minimum = 0.0125 (at node 10)
	maximum = 0.024 (at node 14)
Injected flit rate average = 0.352938
	minimum = 0.192 (at node 56)
	maximum = 0.5305 (at node 40)
Accepted flit rate average= 0.352273
	minimum = 0.2605 (at node 10)
	maximum = 0.4915 (at node 14)
Injected packet length average = 19.9717
Accepted packet length average = 20.0226
Total in-flight flits = 2774 (2755 measured)
latency change    = 0.163634
throughput change = 0.0325786
Class 0:
Packet latency average = 280.031
	minimum = 25
	maximum = 2521
Network latency average = 147.818
	minimum = 25
	maximum = 2155
Slowest packet = 3438
Flit latency average = 106.124
	minimum = 6
	maximum = 2210
Slowest flit = 63515
Fragmentation average = 60.4285
	minimum = 0
	maximum = 275
Injected packet rate average = 0.0179896
	minimum = 0.00833333 (at node 23)
	maximum = 0.025 (at node 40)
Accepted packet rate average = 0.0179375
	minimum = 0.0143333 (at node 10)
	maximum = 0.023 (at node 24)
Injected flit rate average = 0.359656
	minimum = 0.165333 (at node 23)
	maximum = 0.496333 (at node 40)
Accepted flit rate average= 0.358589
	minimum = 0.282333 (at node 61)
	maximum = 0.471667 (at node 24)
Injected packet length average = 19.9925
Accepted packet length average = 19.991
Total in-flight flits = 2856 (2856 measured)
latency change    = 0.0437623
throughput change = 0.017611
Class 0:
Packet latency average = 284.693
	minimum = 25
	maximum = 2669
Network latency average = 152.634
	minimum = 25
	maximum = 2155
Slowest packet = 3438
Flit latency average = 107.708
	minimum = 6
	maximum = 2210
Slowest flit = 63515
Fragmentation average = 59.6907
	minimum = 0
	maximum = 275
Injected packet rate average = 0.0178281
	minimum = 0.00825 (at node 5)
	maximum = 0.02325 (at node 40)
Accepted packet rate average = 0.0177305
	minimum = 0.01375 (at node 18)
	maximum = 0.02275 (at node 24)
Injected flit rate average = 0.35641
	minimum = 0.165 (at node 5)
	maximum = 0.46525 (at node 40)
Accepted flit rate average= 0.355648
	minimum = 0.28125 (at node 18)
	maximum = 0.46125 (at node 24)
Injected packet length average = 19.9915
Accepted packet length average = 20.0586
Total in-flight flits = 2859 (2859 measured)
latency change    = 0.0163751
throughput change = 0.00826688
Class 0:
Packet latency average = 295.644
	minimum = 25
	maximum = 3563
Network latency average = 154.721
	minimum = 25
	maximum = 2804
Slowest packet = 3438
Flit latency average = 107.669
	minimum = 6
	maximum = 2781
Slowest flit = 109537
Fragmentation average = 60.2556
	minimum = 0
	maximum = 275
Injected packet rate average = 0.0180156
	minimum = 0.0108 (at node 5)
	maximum = 0.0228 (at node 40)
Accepted packet rate average = 0.0179625
	minimum = 0.0144 (at node 62)
	maximum = 0.0226 (at node 16)
Injected flit rate average = 0.359988
	minimum = 0.2144 (at node 5)
	maximum = 0.453 (at node 40)
Accepted flit rate average= 0.359366
	minimum = 0.2866 (at node 62)
	maximum = 0.454 (at node 14)
Injected packet length average = 19.982
Accepted packet length average = 20.0064
Total in-flight flits = 2928 (2928 measured)
latency change    = 0.0370432
throughput change = 0.0103437
Draining all recorded packets ...
Class 0:
Remaining flits: 173900 173901 173902 173903 173904 173905 173906 173907 173908 173909 [...] (2878 flits)
Measured flits: 173900 173901 173902 173903 173904 173905 173906 173907 173908 173909 [...] (195 flits)
Class 0:
Remaining flits: 184500 184501 184502 184503 184504 184505 184506 184507 184508 184509 [...] (2957 flits)
Measured flits: 184500 184501 184502 184503 184504 184505 184506 184507 184508 184509 [...] (80 flits)
Class 0:
Remaining flits: 202342 202343 202344 202345 202346 202347 202348 202349 202350 202351 [...] (3052 flits)
Measured flits: 202342 202343 202344 202345 202346 202347 202348 202349 202350 202351 [...] (60 flits)
Draining remaining packets ...
Time taken is 11740 cycles
====== Overall Traffic Statistics ======
====== Traffic class 0 ======
Packet latency average = 333.008 (1 samples)
	minimum = 25 (1 samples)
	maximum = 3940 (1 samples)
Network latency average = 161.634 (1 samples)
	minimum = 25 (1 samples)
	maximum = 2804 (1 samples)
Flit latency average = 110.313 (1 samples)
	minimum = 6 (1 samples)
	maximum = 2781 (1 samples)
Fragmentation average = 60.8554 (1 samples)
	minimum = 0 (1 samples)
	maximum = 275 (1 samples)
Injected packet rate average = 0.0180156 (1 samples)
	minimum = 0.0108 (1 samples)
	maximum = 0.0228 (1 samples)
Accepted packet rate average = 0.0179625 (1 samples)
	minimum = 0.0144 (1 samples)
	maximum = 0.0226 (1 samples)
Injected flit rate average = 0.359988 (1 samples)
	minimum = 0.2144 (1 samples)
	maximum = 0.453 (1 samples)
Accepted flit rate average = 0.359366 (1 samples)
	minimum = 0.2866 (1 samples)
	maximum = 0.454 (1 samples)
Injected packet size average = 19.982 (1 samples)
Accepted packet size average = 20.0064 (1 samples)
Hops average = 6.28053 (1 samples)
Total run time 10.0899
