BEGIN Configuration File: ../../IL2236_project/verify/figure1/MAD/mesh88_lat
// $Id$

// Copyright (c) 2007-2015, Trustees of The Leland Stanford Junior University
// All rights reserved.
//
// Redistribution and use in source and binary forms, with or without
// modification, are permitted provided that the following conditions are met:
//
// Redistributions of source code must retain the above copyright notice, this
// list of conditions and the following disclaimer.
// Redistributions in binary form must reproduce the above copyright notice,
// this list of conditions and the following disclaimer in the documentation
// and/or other materials provided with the distribution.
//
// THIS SOFTWARE IS PROVIDED BY THE COPYRIGHT HOLDERS AND CONTRIBUTORS "AS IS"
// AND ANY EXPRESS OR IMPLIED WARRANTIES, INCLUDING, BUT NOT LIMITED TO, THE
// IMPLIED WARRANTIES OF MERCHANTABILITY AND FITNESS FOR A PARTICULAR PURPOSE
// ARE DISCLAIMED. IN NO EVENT SHALL THE COPYRIGHT OWNER OR CONTRIBUTORS BE
// LIABLE FOR ANY DIRECT, INDIRECT, INCIDENTAL, SPECIAL, EXEMPLARY, OR
// CONSEQUENTIAL DAMAGES (INCLUDING, BUT NOT LIMITED TO, PROCUREMENT OF
// SUBSTITUTE GOODS OR SERVICES; LOSS OF USE, DATA, OR PROFITS; OR BUSINESS
// INTERRUPTION) HOWEVER CAUSED AND ON ANY THEORY OF LIABILITY, WHETHER IN
// CONTRACT, STRICT LIABILITY, OR TORT (INCLUDING NEGLIGENCE OR OTHERWISE)
// ARISING IN ANY WAY OUT OF THE USE OF THIS SOFTWARE, EVEN IF ADVISED OF THE
// POSSIBILITY OF SUCH DAMAGE.

//8X8 mesh with 20 flits per packet under injection mode
//injection rate here is packet per cycle, NOT flit per cycle

// Topology

topology = mesh;
k = 8;
n = 2;

// Routing
routing_function = min_adapt;

// Flow control
num_vcs     = 8;
vc_buf_size = 8;
wait_for_tail_credit = 1;

// Router architecture
vc_allocator = islip;
sw_allocator = islip;
alloc_iters  = 1;

credit_delay   = 2;
routing_delay  = 0;
vc_alloc_delay = 1;
sw_alloc_delay = 1;

input_speedup     = 2;
output_speedup    = 1;
internal_speedup  = 1.0;


// Traffic
traffic = uniform;
packet_size = 20;


// Simulation
sim_type = latency;

injection_rate = .0200;


END Configuration File: ../../IL2236_project/verify/figure1/MAD/mesh88_lat
Class 0:
Packet latency average = 150.74
	minimum = 25
	maximum = 789
Network latency average = 118.218
	minimum = 25
	maximum = 697
Slowest packet = 279
Flit latency average = 73.9318
	minimum = 6
	maximum = 720
Slowest flit = 6017
Fragmentation average = 44.3455
	minimum = 0
	maximum = 224
Injected packet rate average = 0.0188594
	minimum = 0.012 (at node 17)
	maximum = 0.027 (at node 16)
Accepted packet rate average = 0.0157813
	minimum = 0.007 (at node 43)
	maximum = 0.025 (at node 12)
Injected flit rate average = 0.372016
	minimum = 0.225 (at node 37)
	maximum = 0.526 (at node 16)
Accepted flit rate average= 0.333047
	minimum = 0.14 (at node 43)
	maximum = 0.516 (at node 12)
Injected packet length average = 19.7258
Accepted packet length average = 21.104
Total in-flight flits = 2825 (0 measured)
latency change    = 1
throughput change = 1
Class 0:
Packet latency average = 196.125
	minimum = 25
	maximum = 1225
Network latency average = 135.848
	minimum = 25
	maximum = 1130
Slowest packet = 424
Flit latency average = 86.3336
	minimum = 6
	maximum = 1092
Slowest flit = 13630
Fragmentation average = 52.8889
	minimum = 0
	maximum = 224
Injected packet rate average = 0.0187812
	minimum = 0.012 (at node 19)
	maximum = 0.025 (at node 10)
Accepted packet rate average = 0.0174453
	minimum = 0.0125 (at node 29)
	maximum = 0.0235 (at node 27)
Injected flit rate average = 0.372742
	minimum = 0.2335 (at node 19)
	maximum = 0.4935 (at node 10)
Accepted flit rate average= 0.355109
	minimum = 0.2615 (at node 29)
	maximum = 0.47 (at node 27)
Injected packet length average = 19.8465
Accepted packet length average = 20.3556
Total in-flight flits = 2626 (0 measured)
latency change    = 0.231412
throughput change = 0.0621287
Class 0:
Packet latency average = 282.483
	minimum = 29
	maximum = 1765
Network latency average = 151.882
	minimum = 25
	maximum = 1745
Slowest packet = 1056
Flit latency average = 97.413
	minimum = 6
	maximum = 1713
Slowest flit = 16295
Fragmentation average = 61.9177
	minimum = 0
	maximum = 242
Injected packet rate average = 0.0189844
	minimum = 0 (at node 0)
	maximum = 0.034 (at node 57)
Accepted packet rate average = 0.0182344
	minimum = 0.009 (at node 36)
	maximum = 0.033 (at node 22)
Injected flit rate average = 0.378578
	minimum = 0 (at node 0)
	maximum = 0.669 (at node 57)
Accepted flit rate average= 0.366938
	minimum = 0.197 (at node 36)
	maximum = 0.66 (at node 22)
Injected packet length average = 19.9416
Accepted packet length average = 20.1234
Total in-flight flits = 3442 (0 measured)
latency change    = 0.30571
throughput change = 0.0322347
Warmed up ...Time used is 3000 cycles
Class 0:
Packet latency average = 297.037
	minimum = 29
	maximum = 1610
Network latency average = 144.398
	minimum = 25
	maximum = 944
Slowest packet = 3632
Flit latency average = 113.777
	minimum = 6
	maximum = 2434
Slowest flit = 23954
Fragmentation average = 63.511
	minimum = 0
	maximum = 236
Injected packet rate average = 0.0181875
	minimum = 0 (at node 0)
	maximum = 0.029 (at node 23)
Accepted packet rate average = 0.0187344
	minimum = 0.01 (at node 30)
	maximum = 0.031 (at node 14)
Injected flit rate average = 0.364734
	minimum = 0 (at node 0)
	maximum = 0.586 (at node 23)
Accepted flit rate average= 0.372422
	minimum = 0.205 (at node 30)
	maximum = 0.601 (at node 51)
Injected packet length average = 20.0541
Accepted packet length average = 19.8791
Total in-flight flits = 2887 (2447 measured)
latency change    = 0.048996
throughput change = 0.0147262
Class 0:
Packet latency average = 351.099
	minimum = 29
	maximum = 2456
Network latency average = 148.479
	minimum = 25
	maximum = 1651
Slowest packet = 3632
Flit latency average = 113.571
	minimum = 6
	maximum = 3960
Slowest flit = 24238
Fragmentation average = 64.5378
	minimum = 0
	maximum = 249
Injected packet rate average = 0.0187187
	minimum = 0 (at node 0)
	maximum = 0.027 (at node 14)
Accepted packet rate average = 0.0188047
	minimum = 0.013 (at node 18)
	maximum = 0.0285 (at node 14)
Injected flit rate average = 0.374789
	minimum = 0 (at node 0)
	maximum = 0.5455 (at node 14)
Accepted flit rate average= 0.377172
	minimum = 0.263 (at node 18)
	maximum = 0.5515 (at node 14)
Injected packet length average = 20.0221
Accepted packet length average = 20.0573
Total in-flight flits = 3084 (2884 measured)
latency change    = 0.153979
throughput change = 0.0125937
Average latency for class 0 exceeded 500 cycles. Aborting simulation.
Too many sample periods needed to converge
Simulation unstable, ending ...
Total run time 4.40883
