BEGIN Configuration File: ../../IL2236_project/verify/figure1/VAL/mesh88_lat
// $Id$

// Copyright (c) 2007-2015, Trustees of The Leland Stanford Junior University
// All rights reserved.
//
// Redistribution and use in source and binary forms, with or without
// modification, are permitted provided that the following conditions are met:
//
// Redistributions of source code must retain the above copyright notice, this
// list of conditions and the following disclaimer.
// Redistributions in binary form must reproduce the above copyright notice,
// this list of conditions and the following disclaimer in the documentation
// and/or other materials provided with the distribution.
//
// THIS SOFTWARE IS PROVIDED BY THE COPYRIGHT HOLDERS AND CONTRIBUTORS "AS IS"
// AND ANY EXPRESS OR IMPLIED WARRANTIES, INCLUDING, BUT NOT LIMITED TO, THE
// IMPLIED WARRANTIES OF MERCHANTABILITY AND FITNESS FOR A PARTICULAR PURPOSE
// ARE DISCLAIMED. IN NO EVENT SHALL THE COPYRIGHT OWNER OR CONTRIBUTORS BE
// LIABLE FOR ANY DIRECT, INDIRECT, INCIDENTAL, SPECIAL, EXEMPLARY, OR
// CONSEQUENTIAL DAMAGES (INCLUDING, BUT NOT LIMITED TO, PROCUREMENT OF
// SUBSTITUTE GOODS OR SERVICES; LOSS OF USE, DATA, OR PROFITS; OR BUSINESS
// INTERRUPTION) HOWEVER CAUSED AND ON ANY THEORY OF LIABILITY, WHETHER IN
// CONTRACT, STRICT LIABILITY, OR TORT (INCLUDING NEGLIGENCE OR OTHERWISE)
// ARISING IN ANY WAY OUT OF THE USE OF THIS SOFTWARE, EVEN IF ADVISED OF THE
// POSSIBILITY OF SUCH DAMAGE.

//8X8 mesh with 20 flits per packet under injection mode
//injection rate here is packet per cycle, NOT flit per cycle

// Topology

topology = mesh;
k = 8;
n = 2;

// Routing
routing_function = valiant;

// Flow control
num_vcs     = 8;
vc_buf_size = 8;
wait_for_tail_credit = 1;

// Router architecture
vc_allocator = islip;
sw_allocator = islip;
alloc_iters  = 1;

credit_delay   = 2;
routing_delay  = 0;
vc_alloc_delay = 1;
sw_alloc_delay = 1;

input_speedup     = 2;
output_speedup    = 1;
internal_speedup  = 1.0;


// Traffic
traffic = uniform;
packet_size = 20;


// Simulation
sim_type = latency;

injection_rate = .0005;


END Configuration File: ../../IL2236_project/verify/figure1/VAL/mesh88_lat
Class 0:
Packet latency average = 70.7273
	minimum = 45
	maximum = 97
Network latency average = 70.7273
	minimum = 45
	maximum = 97
Slowest packet = 18
Flit latency average = 50.8455
	minimum = 26
	maximum = 78
Slowest flit = 360
Fragmentation average = 1.36364
	minimum = 0
	maximum = 13
Injected packet rate average = 0.000359375
	minimum = 0 (at node 1)
	maximum = 0.002 (at node 2)
Accepted packet rate average = 0.00034375
	minimum = 0 (at node 1)
	maximum = 0.002 (at node 7)
Injected flit rate average = 0.007
	minimum = 0 (at node 1)
	maximum = 0.04 (at node 9)
Accepted flit rate average= 0.006875
	minimum = 0 (at node 1)
	maximum = 0.04 (at node 7)
Injected packet length average = 19.4783
Accepted packet length average = 20
Total in-flight flits = 20 (0 measured)
latency change    = 1
throughput change = 1
Class 0:
Packet latency average = 65.8704
	minimum = 37
	maximum = 101
Network latency average = 65.8704
	minimum = 37
	maximum = 101
Slowest packet = 37
Flit latency average = 46.4685
	minimum = 18
	maximum = 82
Slowest flit = 740
Fragmentation average = 0.648148
	minimum = 0
	maximum = 13
Injected packet rate average = 0.000429688
	minimum = 0 (at node 1)
	maximum = 0.0015 (at node 2)
Accepted packet rate average = 0.000421875
	minimum = 0 (at node 1)
	maximum = 0.0015 (at node 38)
Injected flit rate average = 0.00859375
	minimum = 0 (at node 1)
	maximum = 0.03 (at node 2)
Accepted flit rate average= 0.0084375
	minimum = 0 (at node 1)
	maximum = 0.03 (at node 38)
Injected packet length average = 20
Accepted packet length average = 20
Total in-flight flits = 20 (0 measured)
latency change    = 0.0737343
throughput change = 0.185185
Class 0:
Packet latency average = 64.3125
	minimum = 33
	maximum = 93
Network latency average = 64.3125
	minimum = 33
	maximum = 93
Slowest packet = 80
Flit latency average = 44.7641
	minimum = 14
	maximum = 74
Slowest flit = 1600
Fragmentation average = 0.8125
	minimum = 0
	maximum = 14
Injected packet rate average = 0.000484375
	minimum = 0 (at node 0)
	maximum = 0.004 (at node 1)
Accepted packet rate average = 0.0005
	minimum = 0 (at node 3)
	maximum = 0.005 (at node 57)
Injected flit rate average = 0.0096875
	minimum = 0 (at node 0)
	maximum = 0.08 (at node 1)
Accepted flit rate average= 0.01
	minimum = 0 (at node 3)
	maximum = 0.1 (at node 57)
Injected packet length average = 20
Accepted packet length average = 20
Total in-flight flits = 0 (0 measured)
latency change    = 0.0242234
throughput change = 0.15625
Warmed up ...Time used is 3000 cycles
Class 0:
Packet latency average = 70.5
	minimum = 37
	maximum = 101
Network latency average = 70.2667
	minimum = 37
	maximum = 101
Slowest packet = 92
Flit latency average = 50.1805
	minimum = 18
	maximum = 82
Slowest flit = 1855
Fragmentation average = 2.2
	minimum = 0
	maximum = 14
Injected packet rate average = 0.0005
	minimum = 0 (at node 0)
	maximum = 0.004 (at node 43)
Accepted packet rate average = 0.00046875
	minimum = 0 (at node 1)
	maximum = 0.002 (at node 12)
Injected flit rate average = 0.00992188
	minimum = 0 (at node 0)
	maximum = 0.08 (at node 43)
Accepted flit rate average= 0.00960937
	minimum = 0 (at node 1)
	maximum = 0.04 (at node 12)
Injected packet length average = 19.8438
Accepted packet length average = 20.5
Total in-flight flits = 25 (25 measured)
latency change    = 0.087766
throughput change = 0.0406504
Class 0:
Packet latency average = 68.1091
	minimum = 37
	maximum = 101
Network latency average = 67.9818
	minimum = 37
	maximum = 101
Slowest packet = 92
Flit latency average = 48.07
	minimum = 18
	maximum = 82
Slowest flit = 1855
Fragmentation average = 1.38182
	minimum = 0
	maximum = 14
Injected packet rate average = 0.0004375
	minimum = 0 (at node 0)
	maximum = 0.0025 (at node 43)
Accepted packet rate average = 0.000429688
	minimum = 0 (at node 1)
	maximum = 0.0015 (at node 27)
Injected flit rate average = 0.00865625
	minimum = 0 (at node 0)
	maximum = 0.05 (at node 43)
Accepted flit rate average= 0.00859375
	minimum = 0 (at node 1)
	maximum = 0.03 (at node 27)
Injected packet length average = 19.7857
Accepted packet length average = 20
Total in-flight flits = 20 (20 measured)
latency change    = 0.0351041
throughput change = 0.118182
Class 0:
Packet latency average = 68.5181
	minimum = 37
	maximum = 101
Network latency average = 68.4337
	minimum = 37
	maximum = 101
Slowest packet = 92
Flit latency average = 48.5433
	minimum = 18
	maximum = 82
Slowest flit = 1855
Fragmentation average = 1.26506
	minimum = 0
	maximum = 14
Injected packet rate average = 0.000442708
	minimum = 0 (at node 0)
	maximum = 0.002 (at node 43)
Accepted packet rate average = 0.000432292
	minimum = 0 (at node 1)
	maximum = 0.00133333 (at node 18)
Injected flit rate average = 0.00885417
	minimum = 0 (at node 0)
	maximum = 0.04 (at node 43)
Accepted flit rate average= 0.00865625
	minimum = 0 (at node 1)
	maximum = 0.0266667 (at node 18)
Injected packet length average = 20
Accepted packet length average = 20.0241
Total in-flight flits = 38 (38 measured)
latency change    = 0.00596896
throughput change = 0.00722022
Class 0:
Packet latency average = 68.0619
	minimum = 33
	maximum = 109
Network latency average = 67.8938
	minimum = 33
	maximum = 105
Slowest packet = 92
Flit latency average = 48.1648
	minimum = 14
	maximum = 86
Slowest flit = 3660
Fragmentation average = 0.946903
	minimum = 0
	maximum = 14
Injected packet rate average = 0.000449219
	minimum = 0 (at node 0)
	maximum = 0.0015 (at node 5)
Accepted packet rate average = 0.000441406
	minimum = 0 (at node 1)
	maximum = 0.0015 (at node 42)
Injected flit rate average = 0.00898437
	minimum = 0 (at node 0)
	maximum = 0.03 (at node 5)
Accepted flit rate average= 0.00893359
	minimum = 0 (at node 1)
	maximum = 0.03 (at node 42)
Injected packet length average = 20
Accepted packet length average = 20.2389
Total in-flight flits = 13 (13 measured)
latency change    = 0.00670162
throughput change = 0.031045
Class 0:
Packet latency average = 68.9664
	minimum = 33
	maximum = 109
Network latency average = 68.6107
	minimum = 33
	maximum = 105
Slowest packet = 92
Flit latency average = 48.7621
	minimum = 14
	maximum = 86
Slowest flit = 3660
Fragmentation average = 1.32886
	minimum = 0
	maximum = 15
Injected packet rate average = 0.000475
	minimum = 0 (at node 0)
	maximum = 0.0014 (at node 22)
Accepted packet rate average = 0.000465625
	minimum = 0 (at node 1)
	maximum = 0.0014 (at node 42)
Injected flit rate average = 0.00944062
	minimum = 0 (at node 0)
	maximum = 0.028 (at node 22)
Accepted flit rate average= 0.00936563
	minimum = 0 (at node 1)
	maximum = 0.028 (at node 42)
Injected packet length average = 19.875
Accepted packet length average = 20.1141
Total in-flight flits = 43 (43 measured)
latency change    = 0.013115
throughput change = 0.0461295
Draining all recorded packets ...
Draining remaining packets ...
Time taken is 8150 cycles
====== Overall Traffic Statistics ======
====== Traffic class 0 ======
Packet latency average = 69.2697 (1 samples)
	minimum = 33 (1 samples)
	maximum = 113 (1 samples)
Network latency average = 68.9211 (1 samples)
	minimum = 33 (1 samples)
	maximum = 113 (1 samples)
Flit latency average = 48.6704 (1 samples)
	minimum = 14 (1 samples)
	maximum = 94 (1 samples)
Fragmentation average = 1.36842 (1 samples)
	minimum = 0 (1 samples)
	maximum = 15 (1 samples)
Injected packet rate average = 0.000475 (1 samples)
	minimum = 0 (1 samples)
	maximum = 0.0014 (1 samples)
Accepted packet rate average = 0.000465625 (1 samples)
	minimum = 0 (1 samples)
	maximum = 0.0014 (1 samples)
Injected flit rate average = 0.00944062 (1 samples)
	minimum = 0 (1 samples)
	maximum = 0.028 (1 samples)
Accepted flit rate average = 0.00936563 (1 samples)
	minimum = 0 (1 samples)
	maximum = 0.028 (1 samples)
Injected packet size average = 19.875 (1 samples)
Accepted packet size average = 20.1141 (1 samples)
Hops average = 11.6382 (1 samples)
Total run time 0.818817
