BEGIN Configuration File: ../../IL2236_project/verify/figure1/VAL/mesh88_lat
// $Id$

// Copyright (c) 2007-2015, Trustees of The Leland Stanford Junior University
// All rights reserved.
//
// Redistribution and use in source and binary forms, with or without
// modification, are permitted provided that the following conditions are met:
//
// Redistributions of source code must retain the above copyright notice, this
// list of conditions and the following disclaimer.
// Redistributions in binary form must reproduce the above copyright notice,
// this list of conditions and the following disclaimer in the documentation
// and/or other materials provided with the distribution.
//
// THIS SOFTWARE IS PROVIDED BY THE COPYRIGHT HOLDERS AND CONTRIBUTORS "AS IS"
// AND ANY EXPRESS OR IMPLIED WARRANTIES, INCLUDING, BUT NOT LIMITED TO, THE
// IMPLIED WARRANTIES OF MERCHANTABILITY AND FITNESS FOR A PARTICULAR PURPOSE
// ARE DISCLAIMED. IN NO EVENT SHALL THE COPYRIGHT OWNER OR CONTRIBUTORS BE
// LIABLE FOR ANY DIRECT, INDIRECT, INCIDENTAL, SPECIAL, EXEMPLARY, OR
// CONSEQUENTIAL DAMAGES (INCLUDING, BUT NOT LIMITED TO, PROCUREMENT OF
// SUBSTITUTE GOODS OR SERVICES; LOSS OF USE, DATA, OR PROFITS; OR BUSINESS
// INTERRUPTION) HOWEVER CAUSED AND ON ANY THEORY OF LIABILITY, WHETHER IN
// CONTRACT, STRICT LIABILITY, OR TORT (INCLUDING NEGLIGENCE OR OTHERWISE)
// ARISING IN ANY WAY OUT OF THE USE OF THIS SOFTWARE, EVEN IF ADVISED OF THE
// POSSIBILITY OF SUCH DAMAGE.

//8X8 mesh with 20 flits per packet under injection mode
//injection rate here is packet per cycle, NOT flit per cycle

// Topology

topology = mesh;
k = 8;
n = 2;

// Routing
routing_function = valiant;

// Flow control
num_vcs     = 8;
vc_buf_size = 8;
wait_for_tail_credit = 1;

// Router architecture
vc_allocator = islip;
sw_allocator = islip;
alloc_iters  = 1;

credit_delay   = 2;
routing_delay  = 0;
vc_alloc_delay = 1;
sw_alloc_delay = 1;

input_speedup     = 2;
output_speedup    = 1;
internal_speedup  = 1.0;


// Traffic
traffic = uniform;
packet_size = 20;


// Simulation
sim_type = latency;

injection_rate = .0030;


END Configuration File: ../../IL2236_project/verify/figure1/VAL/mesh88_lat
Class 0:
Packet latency average = 84.104
	minimum = 33
	maximum = 177
Network latency average = 83.5145
	minimum = 33
	maximum = 160
Slowest packet = 64
Flit latency average = 55.5902
	minimum = 14
	maximum = 131
Slowest flit = 1297
Fragmentation average = 16.0347
	minimum = 0
	maximum = 63
Injected packet rate average = 0.0028125
	minimum = 0 (at node 1)
	maximum = 0.008 (at node 62)
Accepted packet rate average = 0.00270312
	minimum = 0 (at node 29)
	maximum = 0.007 (at node 39)
Injected flit rate average = 0.0555937
	minimum = 0 (at node 1)
	maximum = 0.16 (at node 62)
Accepted flit rate average= 0.0540625
	minimum = 0 (at node 29)
	maximum = 0.14 (at node 39)
Injected packet length average = 19.7667
Accepted packet length average = 20
Total in-flight flits = 140 (0 measured)
latency change    = 1
throughput change = 1
Class 0:
Packet latency average = 82.1897
	minimum = 25
	maximum = 177
Network latency average = 81.4052
	minimum = 25
	maximum = 160
Slowest packet = 64
Flit latency average = 54.331
	minimum = 6
	maximum = 131
Slowest flit = 1297
Fragmentation average = 14.2126
	minimum = 0
	maximum = 63
Injected packet rate average = 0.00285937
	minimum = 0.0005 (at node 14)
	maximum = 0.006 (at node 35)
Accepted packet rate average = 0.00271875
	minimum = 0 (at node 54)
	maximum = 0.006 (at node 39)
Injected flit rate average = 0.0568281
	minimum = 0.01 (at node 14)
	maximum = 0.12 (at node 35)
Accepted flit rate average= 0.0549062
	minimum = 0 (at node 54)
	maximum = 0.12 (at node 39)
Injected packet length average = 19.8743
Accepted packet length average = 20.1954
Total in-flight flits = 292 (0 measured)
latency change    = 0.0232924
throughput change = 0.0153671
Class 0:
Packet latency average = 81.1327
	minimum = 37
	maximum = 149
Network latency average = 80.1224
	minimum = 37
	maximum = 149
Slowest packet = 504
Flit latency average = 53.0051
	minimum = 14
	maximum = 130
Slowest flit = 10099
Fragmentation average = 14.1837
	minimum = 0
	maximum = 60
Injected packet rate average = 0.00303125
	minimum = 0 (at node 61)
	maximum = 0.008 (at node 7)
Accepted packet rate average = 0.0030625
	minimum = 0 (at node 32)
	maximum = 0.007 (at node 51)
Injected flit rate average = 0.061
	minimum = 0 (at node 61)
	maximum = 0.16 (at node 7)
Accepted flit rate average= 0.0614375
	minimum = 0 (at node 32)
	maximum = 0.14 (at node 51)
Injected packet length average = 20.1237
Accepted packet length average = 20.0612
Total in-flight flits = 240 (0 measured)
latency change    = 0.0130281
throughput change = 0.106307
Warmed up ...Time used is 3000 cycles
Class 0:
Packet latency average = 80.1345
	minimum = 37
	maximum = 145
Network latency average = 79.731
	minimum = 37
	maximum = 145
Slowest packet = 623
Flit latency average = 53.3865
	minimum = 15
	maximum = 126
Slowest flit = 12473
Fragmentation average = 13.1228
	minimum = 0
	maximum = 64
Injected packet rate average = 0.00296875
	minimum = 0 (at node 15)
	maximum = 0.006 (at node 17)
Accepted packet rate average = 0.00292187
	minimum = 0 (at node 5)
	maximum = 0.008 (at node 8)
Injected flit rate average = 0.0593906
	minimum = 0 (at node 15)
	maximum = 0.121 (at node 50)
Accepted flit rate average= 0.0591406
	minimum = 0 (at node 5)
	maximum = 0.16 (at node 8)
Injected packet length average = 20.0053
Accepted packet length average = 20.2406
Total in-flight flits = 255 (255 measured)
latency change    = 0.0124559
throughput change = 0.0388375
Class 0:
Packet latency average = 79.6971
	minimum = 37
	maximum = 145
Network latency average = 79.05
	minimum = 37
	maximum = 145
Slowest packet = 623
Flit latency average = 53.0205
	minimum = 15
	maximum = 126
Slowest flit = 12473
Fragmentation average = 12.4441
	minimum = 0
	maximum = 64
Injected packet rate average = 0.00275
	minimum = 0.0005 (at node 15)
	maximum = 0.0055 (at node 31)
Accepted packet rate average = 0.00278125
	minimum = 0 (at node 45)
	maximum = 0.0065 (at node 20)
Injected flit rate average = 0.0547969
	minimum = 0.01 (at node 15)
	maximum = 0.111 (at node 31)
Accepted flit rate average= 0.0553359
	minimum = 0 (at node 45)
	maximum = 0.13 (at node 20)
Injected packet length average = 19.9261
Accepted packet length average = 19.8961
Total in-flight flits = 197 (197 measured)
latency change    = 0.00548884
throughput change = 0.0687562
Class 0:
Packet latency average = 82.1337
	minimum = 37
	maximum = 169
Network latency average = 81.2655
	minimum = 37
	maximum = 161
Slowest packet = 983
Flit latency average = 54.1813
	minimum = 15
	maximum = 140
Slowest flit = 19679
Fragmentation average = 14.4859
	minimum = 0
	maximum = 74
Injected packet rate average = 0.00280729
	minimum = 0.000666667 (at node 15)
	maximum = 0.00533333 (at node 42)
Accepted packet rate average = 0.00284896
	minimum = 0.000666667 (at node 10)
	maximum = 0.005 (at node 27)
Injected flit rate average = 0.056224
	minimum = 0.0133333 (at node 15)
	maximum = 0.113 (at node 59)
Accepted flit rate average= 0.0566667
	minimum = 0.0133333 (at node 10)
	maximum = 0.1 (at node 39)
Injected packet length average = 20.0278
Accepted packet length average = 19.8903
Total in-flight flits = 140 (140 measured)
latency change    = 0.0296669
throughput change = 0.0234835
Class 0:
Packet latency average = 83.163
	minimum = 33
	maximum = 169
Network latency average = 82.3055
	minimum = 33
	maximum = 161
Slowest packet = 983
Flit latency average = 54.6742
	minimum = 14
	maximum = 140
Slowest flit = 19679
Fragmentation average = 15.3137
	minimum = 0
	maximum = 74
Injected packet rate average = 0.00289453
	minimum = 0.001 (at node 23)
	maximum = 0.00475 (at node 59)
Accepted packet rate average = 0.00291406
	minimum = 0.00125 (at node 10)
	maximum = 0.005 (at node 27)
Injected flit rate average = 0.0578125
	minimum = 0.02 (at node 23)
	maximum = 0.09975 (at node 59)
Accepted flit rate average= 0.0581172
	minimum = 0.025 (at node 10)
	maximum = 0.0965 (at node 27)
Injected packet length average = 19.973
Accepted packet length average = 19.9437
Total in-flight flits = 182 (182 measured)
latency change    = 0.0123769
throughput change = 0.0249586
Class 0:
Packet latency average = 83.2842
	minimum = 33
	maximum = 169
Network latency average = 82.3333
	minimum = 33
	maximum = 161
Slowest packet = 983
Flit latency average = 54.759
	minimum = 14
	maximum = 140
Slowest flit = 19679
Fragmentation average = 15.259
	minimum = 0
	maximum = 74
Injected packet rate average = 0.0029125
	minimum = 0.0008 (at node 23)
	maximum = 0.0048 (at node 42)
Accepted packet rate average = 0.00290938
	minimum = 0.0012 (at node 52)
	maximum = 0.0052 (at node 27)
Injected flit rate average = 0.0582594
	minimum = 0.016 (at node 23)
	maximum = 0.096 (at node 42)
Accepted flit rate average= 0.058225
	minimum = 0.024 (at node 52)
	maximum = 0.1012 (at node 27)
Injected packet length average = 20.0032
Accepted packet length average = 20.0129
Total in-flight flits = 248 (248 measured)
latency change    = 0.00145453
throughput change = 0.00185165
Draining all recorded packets ...
Draining remaining packets ...
Time taken is 8222 cycles
====== Overall Traffic Statistics ======
====== Traffic class 0 ======
Packet latency average = 83.7042 (1 samples)
	minimum = 33 (1 samples)
	maximum = 169 (1 samples)
Network latency average = 82.7288 (1 samples)
	minimum = 33 (1 samples)
	maximum = 161 (1 samples)
Flit latency average = 54.973 (1 samples)
	minimum = 10 (1 samples)
	maximum = 140 (1 samples)
Fragmentation average = 15.5991 (1 samples)
	minimum = 0 (1 samples)
	maximum = 74 (1 samples)
Injected packet rate average = 0.0029125 (1 samples)
	minimum = 0.0008 (1 samples)
	maximum = 0.0048 (1 samples)
Accepted packet rate average = 0.00290938 (1 samples)
	minimum = 0.0012 (1 samples)
	maximum = 0.0052 (1 samples)
Injected flit rate average = 0.0582594 (1 samples)
	minimum = 0.016 (1 samples)
	maximum = 0.096 (1 samples)
Accepted flit rate average = 0.058225 (1 samples)
	minimum = 0.024 (1 samples)
	maximum = 0.1012 (1 samples)
Injected packet size average = 20.0032 (1 samples)
Accepted packet size average = 20.0129 (1 samples)
Hops average = 11.4727 (1 samples)
Total run time 2.28661
