BEGIN Configuration File: ../../IL2236_project/verify/figure1/VAL/mesh88_lat
// $Id$

// Copyright (c) 2007-2015, Trustees of The Leland Stanford Junior University
// All rights reserved.
//
// Redistribution and use in source and binary forms, with or without
// modification, are permitted provided that the following conditions are met:
//
// Redistributions of source code must retain the above copyright notice, this
// list of conditions and the following disclaimer.
// Redistributions in binary form must reproduce the above copyright notice,
// this list of conditions and the following disclaimer in the documentation
// and/or other materials provided with the distribution.
//
// THIS SOFTWARE IS PROVIDED BY THE COPYRIGHT HOLDERS AND CONTRIBUTORS "AS IS"
// AND ANY EXPRESS OR IMPLIED WARRANTIES, INCLUDING, BUT NOT LIMITED TO, THE
// IMPLIED WARRANTIES OF MERCHANTABILITY AND FITNESS FOR A PARTICULAR PURPOSE
// ARE DISCLAIMED. IN NO EVENT SHALL THE COPYRIGHT OWNER OR CONTRIBUTORS BE
// LIABLE FOR ANY DIRECT, INDIRECT, INCIDENTAL, SPECIAL, EXEMPLARY, OR
// CONSEQUENTIAL DAMAGES (INCLUDING, BUT NOT LIMITED TO, PROCUREMENT OF
// SUBSTITUTE GOODS OR SERVICES; LOSS OF USE, DATA, OR PROFITS; OR BUSINESS
// INTERRUPTION) HOWEVER CAUSED AND ON ANY THEORY OF LIABILITY, WHETHER IN
// CONTRACT, STRICT LIABILITY, OR TORT (INCLUDING NEGLIGENCE OR OTHERWISE)
// ARISING IN ANY WAY OUT OF THE USE OF THIS SOFTWARE, EVEN IF ADVISED OF THE
// POSSIBILITY OF SUCH DAMAGE.

//8X8 mesh with 20 flits per packet under injection mode
//injection rate here is packet per cycle, NOT flit per cycle

// Topology

topology = mesh;
k = 8;
n = 2;

// Routing
routing_function = valiant;

// Flow control
num_vcs     = 8;
vc_buf_size = 8;
wait_for_tail_credit = 1;

// Router architecture
vc_allocator = islip;
sw_allocator = islip;
alloc_iters  = 1;

credit_delay   = 2;
routing_delay  = 0;
vc_alloc_delay = 1;
sw_alloc_delay = 1;

input_speedup     = 2;
output_speedup    = 1;
internal_speedup  = 1.0;


// Traffic
traffic = uniform;
packet_size = 20;


// Simulation
sim_type = latency;

injection_rate = .0035;


END Configuration File: ../../IL2236_project/verify/figure1/VAL/mesh88_lat
Class 0:
Packet latency average = 83.5803
	minimum = 33
	maximum = 179
Network latency average = 82.8083
	minimum = 33
	maximum = 167
Slowest packet = 20
Flit latency average = 55.2695
	minimum = 14
	maximum = 133
Slowest flit = 419
Fragmentation average = 15.2435
	minimum = 0
	maximum = 79
Injected packet rate average = 0.00320312
	minimum = 0 (at node 18)
	maximum = 0.007 (at node 15)
Accepted packet rate average = 0.00301563
	minimum = 0 (at node 5)
	maximum = 0.007 (at node 42)
Injected flit rate average = 0.0634062
	minimum = 0 (at node 18)
	maximum = 0.128 (at node 15)
Accepted flit rate average= 0.0614063
	minimum = 0 (at node 5)
	maximum = 0.14 (at node 42)
Injected packet length average = 19.7951
Accepted packet length average = 20.3627
Total in-flight flits = 170 (0 measured)
latency change    = 1
throughput change = 1
Class 0:
Packet latency average = 84.8155
	minimum = 33
	maximum = 179
Network latency average = 84.1092
	minimum = 33
	maximum = 167
Slowest packet = 20
Flit latency average = 56.0217
	minimum = 6
	maximum = 133
Slowest flit = 419
Fragmentation average = 16.1359
	minimum = 0
	maximum = 79
Injected packet rate average = 0.00338281
	minimum = 0.0005 (at node 38)
	maximum = 0.006 (at node 21)
Accepted packet rate average = 0.00321875
	minimum = 0.0005 (at node 14)
	maximum = 0.006 (at node 39)
Injected flit rate average = 0.0672266
	minimum = 0.01 (at node 38)
	maximum = 0.12 (at node 21)
Accepted flit rate average= 0.0651328
	minimum = 0.0125 (at node 14)
	maximum = 0.12 (at node 39)
Injected packet length average = 19.873
Accepted packet length average = 20.2354
Total in-flight flits = 323 (0 measured)
latency change    = 0.0145636
throughput change = 0.0572148
Class 0:
Packet latency average = 85.5193
	minimum = 33
	maximum = 165
Network latency average = 84.7682
	minimum = 33
	maximum = 165
Slowest packet = 588
Flit latency average = 54.9236
	minimum = 14
	maximum = 146
Slowest flit = 11779
Fragmentation average = 18.7296
	minimum = 0
	maximum = 76
Injected packet rate average = 0.00367187
	minimum = 0 (at node 3)
	maximum = 0.008 (at node 13)
Accepted packet rate average = 0.00364063
	minimum = 0 (at node 9)
	maximum = 0.007 (at node 4)
Injected flit rate average = 0.0741406
	minimum = 0 (at node 3)
	maximum = 0.16 (at node 13)
Accepted flit rate average= 0.073625
	minimum = 0 (at node 9)
	maximum = 0.14 (at node 4)
Injected packet length average = 20.1915
Accepted packet length average = 20.2232
Total in-flight flits = 311 (0 measured)
latency change    = 0.00822948
throughput change = 0.115344
Warmed up ...Time used is 3000 cycles
Class 0:
Packet latency average = 84.3204
	minimum = 33
	maximum = 160
Network latency average = 83.5388
	minimum = 33
	maximum = 156
Slowest packet = 776
Flit latency average = 55.2003
	minimum = 14
	maximum = 137
Slowest flit = 15539
Fragmentation average = 17.1505
	minimum = 0
	maximum = 72
Injected packet rate average = 0.00354688
	minimum = 0.001 (at node 0)
	maximum = 0.009 (at node 50)
Accepted packet rate average = 0.00357813
	minimum = 0 (at node 25)
	maximum = 0.01 (at node 39)
Injected flit rate average = 0.0705
	minimum = 0.02 (at node 0)
	maximum = 0.18 (at node 50)
Accepted flit rate average= 0.0705937
	minimum = 0 (at node 25)
	maximum = 0.188 (at node 39)
Injected packet length average = 19.8767
Accepted packet length average = 19.7293
Total in-flight flits = 333 (333 measured)
latency change    = 0.0142187
throughput change = 0.0429394
Class 0:
Packet latency average = 83.9704
	minimum = 33
	maximum = 160
Network latency average = 83.4507
	minimum = 33
	maximum = 156
Slowest packet = 776
Flit latency average = 55.069
	minimum = 14
	maximum = 137
Slowest flit = 15539
Fragmentation average = 16.766
	minimum = 0
	maximum = 72
Injected packet rate average = 0.00330469
	minimum = 0.0005 (at node 22)
	maximum = 0.0075 (at node 50)
Accepted packet rate average = 0.00335156
	minimum = 0.0005 (at node 10)
	maximum = 0.0075 (at node 39)
Injected flit rate average = 0.0657578
	minimum = 0.01 (at node 22)
	maximum = 0.15 (at node 50)
Accepted flit rate average= 0.0663672
	minimum = 0.0175 (at node 10)
	maximum = 0.144 (at node 39)
Injected packet length average = 19.8983
Accepted packet length average = 19.8019
Total in-flight flits = 276 (276 measured)
latency change    = 0.00416748
throughput change = 0.0636845
Class 0:
Packet latency average = 86.0288
	minimum = 29
	maximum = 203
Network latency average = 85.0383
	minimum = 29
	maximum = 179
Slowest packet = 1109
Flit latency average = 56.0943
	minimum = 10
	maximum = 160
Slowest flit = 23159
Fragmentation average = 17.8738
	minimum = 0
	maximum = 88
Injected packet rate average = 0.00329167
	minimum = 0.000666667 (at node 48)
	maximum = 0.006 (at node 36)
Accepted packet rate average = 0.00338021
	minimum = 0.001 (at node 52)
	maximum = 0.006 (at node 39)
Injected flit rate average = 0.065849
	minimum = 0.0133333 (at node 48)
	maximum = 0.12 (at node 36)
Accepted flit rate average= 0.0668542
	minimum = 0.02 (at node 52)
	maximum = 0.116 (at node 39)
Injected packet length average = 20.0047
Accepted packet length average = 19.7781
Total in-flight flits = 115 (115 measured)
latency change    = 0.0239258
throughput change = 0.0072842
Class 0:
Packet latency average = 86.6
	minimum = 29
	maximum = 211
Network latency average = 85.5071
	minimum = 29
	maximum = 211
Slowest packet = 1393
Flit latency average = 56.3436
	minimum = 10
	maximum = 187
Slowest flit = 27871
Fragmentation average = 18.06
	minimum = 0
	maximum = 108
Injected packet rate average = 0.00339062
	minimum = 0.0015 (at node 22)
	maximum = 0.00575 (at node 36)
Accepted packet rate average = 0.00341016
	minimum = 0.00125 (at node 25)
	maximum = 0.0055 (at node 39)
Injected flit rate average = 0.0676172
	minimum = 0.03 (at node 22)
	maximum = 0.115 (at node 36)
Accepted flit rate average= 0.0679141
	minimum = 0.025 (at node 25)
	maximum = 0.107 (at node 39)
Injected packet length average = 19.9424
Accepted packet length average = 19.9152
Total in-flight flits = 285 (285 measured)
latency change    = 0.00659637
throughput change = 0.0156064
Class 0:
Packet latency average = 85.7253
	minimum = 29
	maximum = 211
Network latency average = 84.7354
	minimum = 29
	maximum = 211
Slowest packet = 1393
Flit latency average = 55.6615
	minimum = 10
	maximum = 187
Slowest flit = 27871
Fragmentation average = 17.7687
	minimum = 0
	maximum = 108
Injected packet rate average = 0.003425
	minimum = 0.0016 (at node 48)
	maximum = 0.0056 (at node 50)
Accepted packet rate average = 0.00345
	minimum = 0.0012 (at node 25)
	maximum = 0.0058 (at node 27)
Injected flit rate average = 0.0684188
	minimum = 0.032 (at node 48)
	maximum = 0.112 (at node 50)
Accepted flit rate average= 0.0687531
	minimum = 0.024 (at node 25)
	maximum = 0.116 (at node 27)
Injected packet length average = 19.9763
Accepted packet length average = 19.9284
Total in-flight flits = 230 (230 measured)
latency change    = 0.0102041
throughput change = 0.012204
Draining all recorded packets ...
Draining remaining packets ...
Time taken is 8192 cycles
====== Overall Traffic Statistics ======
====== Traffic class 0 ======
Packet latency average = 85.6934 (1 samples)
	minimum = 29 (1 samples)
	maximum = 211 (1 samples)
Network latency average = 84.7172 (1 samples)
	minimum = 29 (1 samples)
	maximum = 211 (1 samples)
Flit latency average = 55.5347 (1 samples)
	minimum = 10 (1 samples)
	maximum = 187 (1 samples)
Fragmentation average = 17.7108 (1 samples)
	minimum = 0 (1 samples)
	maximum = 108 (1 samples)
Injected packet rate average = 0.003425 (1 samples)
	minimum = 0.0016 (1 samples)
	maximum = 0.0056 (1 samples)
Accepted packet rate average = 0.00345 (1 samples)
	minimum = 0.0012 (1 samples)
	maximum = 0.0058 (1 samples)
Injected flit rate average = 0.0684188 (1 samples)
	minimum = 0.032 (1 samples)
	maximum = 0.112 (1 samples)
Accepted flit rate average = 0.0687531 (1 samples)
	minimum = 0.024 (1 samples)
	maximum = 0.116 (1 samples)
Injected packet size average = 19.9763 (1 samples)
Accepted packet size average = 19.9284 (1 samples)
Hops average = 11.4005 (1 samples)
Total run time 2.56155
