BEGIN Configuration File: ../../IL2236_project/verify/figure1/VAL/mesh88_lat
// $Id$

// Copyright (c) 2007-2015, Trustees of The Leland Stanford Junior University
// All rights reserved.
//
// Redistribution and use in source and binary forms, with or without
// modification, are permitted provided that the following conditions are met:
//
// Redistributions of source code must retain the above copyright notice, this
// list of conditions and the following disclaimer.
// Redistributions in binary form must reproduce the above copyright notice,
// this list of conditions and the following disclaimer in the documentation
// and/or other materials provided with the distribution.
//
// THIS SOFTWARE IS PROVIDED BY THE COPYRIGHT HOLDERS AND CONTRIBUTORS "AS IS"
// AND ANY EXPRESS OR IMPLIED WARRANTIES, INCLUDING, BUT NOT LIMITED TO, THE
// IMPLIED WARRANTIES OF MERCHANTABILITY AND FITNESS FOR A PARTICULAR PURPOSE
// ARE DISCLAIMED. IN NO EVENT SHALL THE COPYRIGHT OWNER OR CONTRIBUTORS BE
// LIABLE FOR ANY DIRECT, INDIRECT, INCIDENTAL, SPECIAL, EXEMPLARY, OR
// CONSEQUENTIAL DAMAGES (INCLUDING, BUT NOT LIMITED TO, PROCUREMENT OF
// SUBSTITUTE GOODS OR SERVICES; LOSS OF USE, DATA, OR PROFITS; OR BUSINESS
// INTERRUPTION) HOWEVER CAUSED AND ON ANY THEORY OF LIABILITY, WHETHER IN
// CONTRACT, STRICT LIABILITY, OR TORT (INCLUDING NEGLIGENCE OR OTHERWISE)
// ARISING IN ANY WAY OUT OF THE USE OF THIS SOFTWARE, EVEN IF ADVISED OF THE
// POSSIBILITY OF SUCH DAMAGE.

//8X8 mesh with 20 flits per packet under injection mode
//injection rate here is packet per cycle, NOT flit per cycle

// Topology

topology = mesh;
k = 8;
n = 2;

// Routing
routing_function = valiant;

// Flow control
num_vcs     = 8;
vc_buf_size = 8;
wait_for_tail_credit = 1;

// Router architecture
vc_allocator = islip;
sw_allocator = islip;
alloc_iters  = 1;

credit_delay   = 2;
routing_delay  = 0;
vc_alloc_delay = 1;
sw_alloc_delay = 1;

input_speedup     = 2;
output_speedup    = 1;
internal_speedup  = 1.0;


// Traffic
traffic = uniform;
packet_size = 20;


// Simulation
sim_type = latency;

injection_rate = .0040;


END Configuration File: ../../IL2236_project/verify/figure1/VAL/mesh88_lat
Class 0:
Packet latency average = 92.3088
	minimum = 41
	maximum = 157
Network latency average = 91.2949
	minimum = 41
	maximum = 157
Slowest packet = 27
Flit latency average = 59.0777
	minimum = 18
	maximum = 146
Slowest flit = 4096
Fragmentation average = 23.553
	minimum = 0
	maximum = 98
Injected packet rate average = 0.00364063
	minimum = 0 (at node 1)
	maximum = 0.01 (at node 20)
Accepted packet rate average = 0.00339062
	minimum = 0 (at node 11)
	maximum = 0.009 (at node 42)
Injected flit rate average = 0.0720781
	minimum = 0 (at node 1)
	maximum = 0.182 (at node 20)
Accepted flit rate average= 0.069375
	minimum = 0 (at node 11)
	maximum = 0.18 (at node 42)
Injected packet length average = 19.7983
Accepted packet length average = 20.4608
Total in-flight flits = 220 (0 measured)
latency change    = 1
throughput change = 1
Class 0:
Packet latency average = 90.9873
	minimum = 33
	maximum = 193
Network latency average = 90.161
	minimum = 33
	maximum = 193
Slowest packet = 405
Flit latency average = 58.4176
	minimum = 14
	maximum = 174
Slowest flit = 8119
Fragmentation average = 22.4322
	minimum = 0
	maximum = 114
Injected packet rate average = 0.00389844
	minimum = 0.001 (at node 38)
	maximum = 0.0075 (at node 40)
Accepted packet rate average = 0.0036875
	minimum = 0.001 (at node 11)
	maximum = 0.007 (at node 42)
Injected flit rate average = 0.0774531
	minimum = 0.02 (at node 38)
	maximum = 0.15 (at node 40)
Accepted flit rate average= 0.0747812
	minimum = 0.02 (at node 11)
	maximum = 0.14 (at node 42)
Injected packet length average = 19.8677
Accepted packet length average = 20.2797
Total in-flight flits = 408 (0 measured)
latency change    = 0.0145237
throughput change = 0.0722942
Class 0:
Packet latency average = 86.8901
	minimum = 29
	maximum = 155
Network latency average = 85.4762
	minimum = 29
	maximum = 149
Slowest packet = 512
Flit latency average = 55.6051
	minimum = 10
	maximum = 129
Slowest flit = 12679
Fragmentation average = 18.9231
	minimum = 0
	maximum = 63
Injected packet rate average = 0.00414063
	minimum = 0 (at node 61)
	maximum = 0.009 (at node 6)
Accepted packet rate average = 0.00426563
	minimum = 0.001 (at node 9)
	maximum = 0.008 (at node 30)
Injected flit rate average = 0.0835313
	minimum = 0 (at node 61)
	maximum = 0.181 (at node 48)
Accepted flit rate average= 0.084625
	minimum = 0.02 (at node 9)
	maximum = 0.16 (at node 30)
Injected packet length average = 20.1736
Accepted packet length average = 19.8388
Total in-flight flits = 292 (0 measured)
latency change    = 0.0471536
throughput change = 0.116322
Warmed up ...Time used is 3000 cycles
Class 0:
Packet latency average = 86.511
	minimum = 37
	maximum = 165
Network latency average = 85.2731
	minimum = 37
	maximum = 165
Slowest packet = 848
Flit latency average = 55.319
	minimum = 18
	maximum = 138
Slowest flit = 16979
Fragmentation average = 19.1013
	minimum = 0
	maximum = 72
Injected packet rate average = 0.00392188
	minimum = 0 (at node 7)
	maximum = 0.009 (at node 61)
Accepted packet rate average = 0.00384375
	minimum = 0 (at node 10)
	maximum = 0.009 (at node 37)
Injected flit rate average = 0.0780781
	minimum = 0 (at node 7)
	maximum = 0.18 (at node 61)
Accepted flit rate average= 0.0776875
	minimum = 0 (at node 10)
	maximum = 0.18 (at node 37)
Injected packet length average = 19.9084
Accepted packet length average = 20.2114
Total in-flight flits = 340 (340 measured)
latency change    = 0.00438206
throughput change = 0.0893001
Class 0:
Packet latency average = 89.0613
	minimum = 37
	maximum = 233
Network latency average = 87.8381
	minimum = 37
	maximum = 233
Slowest packet = 1146
Flit latency average = 56.8346
	minimum = 10
	maximum = 214
Slowest flit = 22939
Fragmentation average = 20.6718
	minimum = 0
	maximum = 132
Injected packet rate average = 0.00373437
	minimum = 0.001 (at node 55)
	maximum = 0.007 (at node 26)
Accepted packet rate average = 0.00371875
	minimum = 0.001 (at node 52)
	maximum = 0.0065 (at node 26)
Injected flit rate average = 0.0744375
	minimum = 0.017 (at node 55)
	maximum = 0.14 (at node 26)
Accepted flit rate average= 0.0746641
	minimum = 0.02 (at node 52)
	maximum = 0.13 (at node 27)
Injected packet length average = 19.9331
Accepted packet length average = 20.0777
Total in-flight flits = 295 (295 measured)
latency change    = 0.0286348
throughput change = 0.0404939
Class 0:
Packet latency average = 88.6208
	minimum = 25
	maximum = 233
Network latency average = 87.2107
	minimum = 25
	maximum = 233
Slowest packet = 1146
Flit latency average = 56.9101
	minimum = 6
	maximum = 214
Slowest flit = 22939
Fragmentation average = 20.0197
	minimum = 0
	maximum = 132
Injected packet rate average = 0.00375
	minimum = 0.00133333 (at node 55)
	maximum = 0.00733333 (at node 26)
Accepted packet rate average = 0.00380729
	minimum = 0.001 (at node 52)
	maximum = 0.00633333 (at node 27)
Injected flit rate average = 0.0750573
	minimum = 0.0266667 (at node 55)
	maximum = 0.143667 (at node 26)
Accepted flit rate average= 0.0758698
	minimum = 0.02 (at node 52)
	maximum = 0.126667 (at node 27)
Injected packet length average = 20.0153
Accepted packet length average = 19.9275
Total in-flight flits = 125 (125 measured)
latency change    = 0.00497042
throughput change = 0.0158921
Class 0:
Packet latency average = 88.7147
	minimum = 25
	maximum = 233
Network latency average = 87.4502
	minimum = 25
	maximum = 233
Slowest packet = 1146
Flit latency average = 56.807
	minimum = 6
	maximum = 214
Slowest flit = 22939
Fragmentation average = 20.499
	minimum = 0
	maximum = 132
Injected packet rate average = 0.00385547
	minimum = 0.00125 (at node 55)
	maximum = 0.0065 (at node 1)
Accepted packet rate average = 0.00383984
	minimum = 0.0015 (at node 52)
	maximum = 0.007 (at node 27)
Injected flit rate average = 0.0768516
	minimum = 0.025 (at node 55)
	maximum = 0.13 (at node 26)
Accepted flit rate average= 0.0767305
	minimum = 0.03 (at node 52)
	maximum = 0.14 (at node 27)
Injected packet length average = 19.9331
Accepted packet length average = 19.9827
Total in-flight flits = 389 (389 measured)
latency change    = 0.00105894
throughput change = 0.0112169
Draining all recorded packets ...
Draining remaining packets ...
Time taken is 7187 cycles
====== Overall Traffic Statistics ======
====== Traffic class 0 ======
Packet latency average = 88.7662 (1 samples)
	minimum = 25 (1 samples)
	maximum = 233 (1 samples)
Network latency average = 87.4798 (1 samples)
	minimum = 25 (1 samples)
	maximum = 233 (1 samples)
Flit latency average = 56.8601 (1 samples)
	minimum = 6 (1 samples)
	maximum = 214 (1 samples)
Fragmentation average = 20.3715 (1 samples)
	minimum = 0 (1 samples)
	maximum = 132 (1 samples)
Injected packet rate average = 0.00385547 (1 samples)
	minimum = 0.00125 (1 samples)
	maximum = 0.0065 (1 samples)
Accepted packet rate average = 0.00383984 (1 samples)
	minimum = 0.0015 (1 samples)
	maximum = 0.007 (1 samples)
Injected flit rate average = 0.0768516 (1 samples)
	minimum = 0.025 (1 samples)
	maximum = 0.13 (1 samples)
Accepted flit rate average = 0.0767305 (1 samples)
	minimum = 0.03 (1 samples)
	maximum = 0.14 (1 samples)
Injected packet size average = 19.9331 (1 samples)
Accepted packet size average = 19.9827 (1 samples)
Hops average = 11.4211 (1 samples)
Total run time 2.4589
