BEGIN Configuration File: ../../IL2236_project/verify/figure1/VAL/mesh88_lat
// $Id$

// Copyright (c) 2007-2015, Trustees of The Leland Stanford Junior University
// All rights reserved.
//
// Redistribution and use in source and binary forms, with or without
// modification, are permitted provided that the following conditions are met:
//
// Redistributions of source code must retain the above copyright notice, this
// list of conditions and the following disclaimer.
// Redistributions in binary form must reproduce the above copyright notice,
// this list of conditions and the following disclaimer in the documentation
// and/or other materials provided with the distribution.
//
// THIS SOFTWARE IS PROVIDED BY THE COPYRIGHT HOLDERS AND CONTRIBUTORS "AS IS"
// AND ANY EXPRESS OR IMPLIED WARRANTIES, INCLUDING, BUT NOT LIMITED TO, THE
// IMPLIED WARRANTIES OF MERCHANTABILITY AND FITNESS FOR A PARTICULAR PURPOSE
// ARE DISCLAIMED. IN NO EVENT SHALL THE COPYRIGHT OWNER OR CONTRIBUTORS BE
// LIABLE FOR ANY DIRECT, INDIRECT, INCIDENTAL, SPECIAL, EXEMPLARY, OR
// CONSEQUENTIAL DAMAGES (INCLUDING, BUT NOT LIMITED TO, PROCUREMENT OF
// SUBSTITUTE GOODS OR SERVICES; LOSS OF USE, DATA, OR PROFITS; OR BUSINESS
// INTERRUPTION) HOWEVER CAUSED AND ON ANY THEORY OF LIABILITY, WHETHER IN
// CONTRACT, STRICT LIABILITY, OR TORT (INCLUDING NEGLIGENCE OR OTHERWISE)
// ARISING IN ANY WAY OUT OF THE USE OF THIS SOFTWARE, EVEN IF ADVISED OF THE
// POSSIBILITY OF SUCH DAMAGE.

//8X8 mesh with 20 flits per packet under injection mode
//injection rate here is packet per cycle, NOT flit per cycle

// Topology

topology = mesh;
k = 8;
n = 2;

// Routing
routing_function = valiant;

// Flow control
num_vcs     = 8;
vc_buf_size = 8;
wait_for_tail_credit = 1;

// Router architecture
vc_allocator = islip;
sw_allocator = islip;
alloc_iters  = 1;

credit_delay   = 2;
routing_delay  = 0;
vc_alloc_delay = 1;
sw_alloc_delay = 1;

input_speedup     = 2;
output_speedup    = 1;
internal_speedup  = 1.0;


// Traffic
traffic = uniform;
packet_size = 20;


// Simulation
sim_type = latency;

injection_rate = .0050;


END Configuration File: ../../IL2236_project/verify/figure1/VAL/mesh88_lat
Class 0:
Packet latency average = 99.8566
	minimum = 29
	maximum = 206
Network latency average = 98.0502
	minimum = 29
	maximum = 206
Slowest packet = 173
Flit latency average = 62.6704
	minimum = 10
	maximum = 179
Slowest flit = 3479
Fragmentation average = 29.3297
	minimum = 0
	maximum = 110
Injected packet rate average = 0.0046875
	minimum = 0.001 (at node 15)
	maximum = 0.01 (at node 3)
Accepted packet rate average = 0.00435938
	minimum = 0 (at node 11)
	maximum = 0.01 (at node 39)
Injected flit rate average = 0.0928281
	minimum = 0.02 (at node 15)
	maximum = 0.181 (at node 3)
Accepted flit rate average= 0.0890313
	minimum = 0 (at node 11)
	maximum = 0.2 (at node 39)
Injected packet length average = 19.8033
Accepted packet length average = 20.4229
Total in-flight flits = 302 (0 measured)
latency change    = 1
throughput change = 1
Class 0:
Packet latency average = 96.8837
	minimum = 29
	maximum = 206
Network latency average = 95.4583
	minimum = 29
	maximum = 206
Slowest packet = 173
Flit latency average = 60.904
	minimum = 10
	maximum = 179
Slowest flit = 3479
Fragmentation average = 27.9688
	minimum = 0
	maximum = 110
Injected packet rate average = 0.00477344
	minimum = 0.0015 (at node 5)
	maximum = 0.0085 (at node 46)
Accepted packet rate average = 0.0045
	minimum = 0.001 (at node 29)
	maximum = 0.0085 (at node 60)
Injected flit rate average = 0.0947344
	minimum = 0.03 (at node 5)
	maximum = 0.17 (at node 46)
Accepted flit rate average= 0.0913594
	minimum = 0.02 (at node 54)
	maximum = 0.17 (at node 60)
Injected packet length average = 19.8462
Accepted packet length average = 20.3021
Total in-flight flits = 526 (0 measured)
latency change    = 0.0306858
throughput change = 0.0254832
Class 0:
Packet latency average = 103.419
	minimum = 33
	maximum = 216
Network latency average = 101.53
	minimum = 33
	maximum = 216
Slowest packet = 622
Flit latency average = 63.7717
	minimum = 10
	maximum = 197
Slowest flit = 12459
Fragmentation average = 33.8982
	minimum = 0
	maximum = 144
Injected packet rate average = 0.005125
	minimum = 0.001 (at node 9)
	maximum = 0.011 (at node 11)
Accepted packet rate average = 0.00521875
	minimum = 0.001 (at node 10)
	maximum = 0.01 (at node 31)
Injected flit rate average = 0.102906
	minimum = 0.02 (at node 19)
	maximum = 0.22 (at node 11)
Accepted flit rate average= 0.103328
	minimum = 0.01 (at node 45)
	maximum = 0.2 (at node 31)
Injected packet length average = 20.0793
Accepted packet length average = 19.7994
Total in-flight flits = 473 (0 measured)
latency change    = 0.0631941
throughput change = 0.115832
Warmed up ...Time used is 3000 cycles
Class 0:
Packet latency average = 91.6434
	minimum = 37
	maximum = 173
Network latency average = 90.9729
	minimum = 37
	maximum = 173
Slowest packet = 1146
Flit latency average = 59.5718
	minimum = 14
	maximum = 154
Slowest flit = 22938
Fragmentation average = 23.3411
	minimum = 0
	maximum = 79
Injected packet rate average = 0.004625
	minimum = 0.001 (at node 19)
	maximum = 0.009 (at node 8)
Accepted packet rate average = 0.00448437
	minimum = 0.001 (at node 17)
	maximum = 0.009 (at node 9)
Injected flit rate average = 0.0923594
	minimum = 0.02 (at node 19)
	maximum = 0.18 (at node 8)
Accepted flit rate average= 0.0915469
	minimum = 0.02 (at node 17)
	maximum = 0.18 (at node 9)
Injected packet length average = 19.9696
Accepted packet length average = 20.4146
Total in-flight flits = 534 (534 measured)
latency change    = 0.128495
throughput change = 0.128691
Class 0:
Packet latency average = 93.8201
	minimum = 37
	maximum = 215
Network latency average = 92.9766
	minimum = 37
	maximum = 215
Slowest packet = 1249
Flit latency average = 59.8757
	minimum = 14
	maximum = 196
Slowest flit = 24999
Fragmentation average = 25.6888
	minimum = 0
	maximum = 119
Injected packet rate average = 0.00452344
	minimum = 0.0025 (at node 7)
	maximum = 0.0085 (at node 40)
Accepted packet rate average = 0.00457031
	minimum = 0.0015 (at node 52)
	maximum = 0.0075 (at node 37)
Injected flit rate average = 0.0904297
	minimum = 0.05 (at node 7)
	maximum = 0.1695 (at node 45)
Accepted flit rate average= 0.0910234
	minimum = 0.031 (at node 52)
	maximum = 0.1405 (at node 44)
Injected packet length average = 19.9914
Accepted packet length average = 19.9162
Total in-flight flits = 402 (402 measured)
latency change    = 0.0232011
throughput change = 0.00575058
Class 0:
Packet latency average = 94.8806
	minimum = 37
	maximum = 230
Network latency average = 93.8737
	minimum = 33
	maximum = 230
Slowest packet = 1710
Flit latency average = 60.2766
	minimum = 14
	maximum = 211
Slowest flit = 34219
Fragmentation average = 26.4171
	minimum = 0
	maximum = 134
Injected packet rate average = 0.00463021
	minimum = 0.00266667 (at node 44)
	maximum = 0.00833333 (at node 32)
Accepted packet rate average = 0.00464583
	minimum = 0.002 (at node 53)
	maximum = 0.00766667 (at node 27)
Injected flit rate average = 0.0926719
	minimum = 0.0533333 (at node 44)
	maximum = 0.166667 (at node 32)
Accepted flit rate average= 0.0931458
	minimum = 0.04 (at node 53)
	maximum = 0.149 (at node 27)
Injected packet length average = 20.0146
Accepted packet length average = 20.0493
Total in-flight flits = 369 (369 measured)
latency change    = 0.0111773
throughput change = 0.0227857
Class 0:
Packet latency average = 96.7792
	minimum = 33
	maximum = 231
Network latency average = 95.5993
	minimum = 33
	maximum = 230
Slowest packet = 1710
Flit latency average = 61.3513
	minimum = 14
	maximum = 211
Slowest flit = 34219
Fragmentation average = 27.5763
	minimum = 0
	maximum = 134
Injected packet rate average = 0.00472266
	minimum = 0.00275 (at node 52)
	maximum = 0.0085 (at node 32)
Accepted packet rate average = 0.00469531
	minimum = 0.00175 (at node 53)
	maximum = 0.008 (at node 39)
Injected flit rate average = 0.0943242
	minimum = 0.055 (at node 52)
	maximum = 0.16775 (at node 32)
Accepted flit rate average= 0.0943516
	minimum = 0.035 (at node 53)
	maximum = 0.16 (at node 39)
Injected packet length average = 19.9727
Accepted packet length average = 20.0948
Total in-flight flits = 499 (499 measured)
latency change    = 0.0196173
throughput change = 0.0127791
Draining all recorded packets ...
Draining remaining packets ...
Time taken is 7273 cycles
====== Overall Traffic Statistics ======
====== Traffic class 0 ======
Packet latency average = 97.3027 (1 samples)
	minimum = 33 (1 samples)
	maximum = 231 (1 samples)
Network latency average = 96.1241 (1 samples)
	minimum = 33 (1 samples)
	maximum = 230 (1 samples)
Flit latency average = 61.7187 (1 samples)
	minimum = 14 (1 samples)
	maximum = 211 (1 samples)
Fragmentation average = 27.8776 (1 samples)
	minimum = 0 (1 samples)
	maximum = 134 (1 samples)
Injected packet rate average = 0.00472266 (1 samples)
	minimum = 0.00275 (1 samples)
	maximum = 0.0085 (1 samples)
Accepted packet rate average = 0.00469531 (1 samples)
	minimum = 0.00175 (1 samples)
	maximum = 0.008 (1 samples)
Injected flit rate average = 0.0943242 (1 samples)
	minimum = 0.055 (1 samples)
	maximum = 0.16775 (1 samples)
Accepted flit rate average = 0.0943516 (1 samples)
	minimum = 0.035 (1 samples)
	maximum = 0.16 (1 samples)
Injected packet size average = 19.9727 (1 samples)
Accepted packet size average = 20.0948 (1 samples)
Hops average = 11.5227 (1 samples)
Total run time 2.90271
