BEGIN Configuration File: ../../IL2236_project/verify/figure1/VAL/mesh88_lat
// $Id$

// Copyright (c) 2007-2015, Trustees of The Leland Stanford Junior University
// All rights reserved.
//
// Redistribution and use in source and binary forms, with or without
// modification, are permitted provided that the following conditions are met:
//
// Redistributions of source code must retain the above copyright notice, this
// list of conditions and the following disclaimer.
// Redistributions in binary form must reproduce the above copyright notice,
// this list of conditions and the following disclaimer in the documentation
// and/or other materials provided with the distribution.
//
// THIS SOFTWARE IS PROVIDED BY THE COPYRIGHT HOLDERS AND CONTRIBUTORS "AS IS"
// AND ANY EXPRESS OR IMPLIED WARRANTIES, INCLUDING, BUT NOT LIMITED TO, THE
// IMPLIED WARRANTIES OF MERCHANTABILITY AND FITNESS FOR A PARTICULAR PURPOSE
// ARE DISCLAIMED. IN NO EVENT SHALL THE COPYRIGHT OWNER OR CONTRIBUTORS BE
// LIABLE FOR ANY DIRECT, INDIRECT, INCIDENTAL, SPECIAL, EXEMPLARY, OR
// CONSEQUENTIAL DAMAGES (INCLUDING, BUT NOT LIMITED TO, PROCUREMENT OF
// SUBSTITUTE GOODS OR SERVICES; LOSS OF USE, DATA, OR PROFITS; OR BUSINESS
// INTERRUPTION) HOWEVER CAUSED AND ON ANY THEORY OF LIABILITY, WHETHER IN
// CONTRACT, STRICT LIABILITY, OR TORT (INCLUDING NEGLIGENCE OR OTHERWISE)
// ARISING IN ANY WAY OUT OF THE USE OF THIS SOFTWARE, EVEN IF ADVISED OF THE
// POSSIBILITY OF SUCH DAMAGE.

//8X8 mesh with 20 flits per packet under injection mode
//injection rate here is packet per cycle, NOT flit per cycle

// Topology

topology = mesh;
k = 8;
n = 2;

// Routing
routing_function = valiant;

// Flow control
num_vcs     = 8;
vc_buf_size = 8;
wait_for_tail_credit = 1;

// Router architecture
vc_allocator = islip;
sw_allocator = islip;
alloc_iters  = 1;

credit_delay   = 2;
routing_delay  = 0;
vc_alloc_delay = 1;
sw_alloc_delay = 1;

input_speedup     = 2;
output_speedup    = 1;
internal_speedup  = 1.0;


// Traffic
traffic = uniform;
packet_size = 20;


// Simulation
sim_type = latency;

injection_rate = .0075;


END Configuration File: ../../IL2236_project/verify/figure1/VAL/mesh88_lat
Class 0:
Packet latency average = 131.333
	minimum = 29
	maximum = 299
Network latency average = 128.298
	minimum = 29
	maximum = 293
Slowest packet = 236
Flit latency average = 78.9995
	minimum = 10
	maximum = 295
Slowest flit = 6465
Fragmentation average = 55.3157
	minimum = 0
	maximum = 166
Injected packet rate average = 0.00696875
	minimum = 0.002 (at node 51)
	maximum = 0.013 (at node 35)
Accepted packet rate average = 0.0061875
	minimum = 0.001 (at node 29)
	maximum = 0.012 (at node 53)
Injected flit rate average = 0.138031
	minimum = 0.04 (at node 51)
	maximum = 0.26 (at node 35)
Accepted flit rate average= 0.128344
	minimum = 0.02 (at node 29)
	maximum = 0.24 (at node 53)
Injected packet length average = 19.8072
Accepted packet length average = 20.7424
Total in-flight flits = 706 (0 measured)
latency change    = 1
throughput change = 1
Class 0:
Packet latency average = 132.508
	minimum = 25
	maximum = 348
Network latency average = 129.225
	minimum = 25
	maximum = 348
Slowest packet = 323
Flit latency average = 79.3363
	minimum = 6
	maximum = 329
Slowest flit = 6479
Fragmentation average = 56.0144
	minimum = 0
	maximum = 209
Injected packet rate average = 0.007125
	minimum = 0.0035 (at node 51)
	maximum = 0.011 (at node 21)
Accepted packet rate average = 0.00652344
	minimum = 0.003 (at node 16)
	maximum = 0.0105 (at node 39)
Injected flit rate average = 0.141063
	minimum = 0.07 (at node 51)
	maximum = 0.2105 (at node 21)
Accepted flit rate average= 0.133797
	minimum = 0.06 (at node 16)
	maximum = 0.218 (at node 39)
Injected packet length average = 19.7982
Accepted packet length average = 20.5102
Total in-flight flits = 1114 (0 measured)
latency change    = 0.00886326
throughput change = 0.0407567
Class 0:
Packet latency average = 152.479
	minimum = 45
	maximum = 513
Network latency average = 145.367
	minimum = 45
	maximum = 361
Slowest packet = 953
Flit latency average = 90.0575
	minimum = 10
	maximum = 329
Slowest flit = 19079
Fragmentation average = 65.2227
	minimum = 0
	maximum = 203
Injected packet rate average = 0.0076875
	minimum = 0.001 (at node 10)
	maximum = 0.013 (at node 58)
Accepted packet rate average = 0.008
	minimum = 0.002 (at node 52)
	maximum = 0.015 (at node 47)
Injected flit rate average = 0.155062
	minimum = 0.025 (at node 10)
	maximum = 0.26 (at node 58)
Accepted flit rate average= 0.158984
	minimum = 0.04 (at node 52)
	maximum = 0.287 (at node 47)
Injected packet length average = 20.1707
Accepted packet length average = 19.873
Total in-flight flits = 779 (0 measured)
latency change    = 0.130974
throughput change = 0.158428
Warmed up ...Time used is 3000 cycles
Class 0:
Packet latency average = 145.803
	minimum = 44
	maximum = 445
Network latency average = 141.53
	minimum = 44
	maximum = 408
Slowest packet = 1469
Flit latency average = 86.9179
	minimum = 14
	maximum = 352
Slowest flit = 28959
Fragmentation average = 61.7247
	minimum = 0
	maximum = 218
Injected packet rate average = 0.00720313
	minimum = 0.002 (at node 5)
	maximum = 0.013 (at node 4)
Accepted packet rate average = 0.00707813
	minimum = 0.001 (at node 25)
	maximum = 0.015 (at node 27)
Injected flit rate average = 0.143609
	minimum = 0.05 (at node 41)
	maximum = 0.26 (at node 4)
Accepted flit rate average= 0.141828
	minimum = 0.02 (at node 25)
	maximum = 0.28 (at node 27)
Injected packet length average = 19.9371
Accepted packet length average = 20.0375
Total in-flight flits = 922 (922 measured)
latency change    = 0.0457843
throughput change = 0.120965
Class 0:
Packet latency average = 140.952
	minimum = 44
	maximum = 445
Network latency average = 136.474
	minimum = 44
	maximum = 408
Slowest packet = 1469
Flit latency average = 84.3786
	minimum = 14
	maximum = 352
Slowest flit = 28959
Fragmentation average = 58.9519
	minimum = 0
	maximum = 218
Injected packet rate average = 0.00714844
	minimum = 0.0025 (at node 41)
	maximum = 0.011 (at node 17)
Accepted packet rate average = 0.00710938
	minimum = 0.002 (at node 25)
	maximum = 0.014 (at node 16)
Injected flit rate average = 0.142914
	minimum = 0.0455 (at node 41)
	maximum = 0.22 (at node 17)
Accepted flit rate average= 0.142258
	minimum = 0.04 (at node 25)
	maximum = 0.2665 (at node 16)
Injected packet length average = 19.9923
Accepted packet length average = 20.0099
Total in-flight flits = 870 (870 measured)
latency change    = 0.0344167
throughput change = 0.00302048
Class 0:
Packet latency average = 140.273
	minimum = 41
	maximum = 445
Network latency average = 135.733
	minimum = 41
	maximum = 408
Slowest packet = 1469
Flit latency average = 84.3786
	minimum = 14
	maximum = 352
Slowest flit = 28959
Fragmentation average = 58.2587
	minimum = 0
	maximum = 218
Injected packet rate average = 0.00702604
	minimum = 0.00366667 (at node 6)
	maximum = 0.01 (at node 17)
Accepted packet rate average = 0.0070625
	minimum = 0.003 (at node 19)
	maximum = 0.0113333 (at node 54)
Injected flit rate average = 0.140427
	minimum = 0.0733333 (at node 6)
	maximum = 0.2 (at node 17)
Accepted flit rate average= 0.140948
	minimum = 0.054 (at node 53)
	maximum = 0.22 (at node 41)
Injected packet length average = 19.9867
Accepted packet length average = 19.9572
Total in-flight flits = 697 (697 measured)
latency change    = 0.00484355
throughput change = 0.00929347
Class 0:
Packet latency average = 141.774
	minimum = 34
	maximum = 581
Network latency average = 137.346
	minimum = 34
	maximum = 581
Slowest packet = 2915
Flit latency average = 86.0183
	minimum = 10
	maximum = 555
Slowest flit = 58319
Fragmentation average = 58.9383
	minimum = 0
	maximum = 218
Injected packet rate average = 0.00716016
	minimum = 0.00425 (at node 8)
	maximum = 0.01 (at node 17)
Accepted packet rate average = 0.00705859
	minimum = 0.00325 (at node 19)
	maximum = 0.01125 (at node 54)
Injected flit rate average = 0.143078
	minimum = 0.085 (at node 8)
	maximum = 0.2 (at node 17)
Accepted flit rate average= 0.142051
	minimum = 0.065 (at node 19)
	maximum = 0.22025 (at node 54)
Injected packet length average = 19.9825
Accepted packet length average = 20.1245
Total in-flight flits = 1074 (1074 measured)
latency change    = 0.0105887
throughput change = 0.00776388
Draining all recorded packets ...
Draining remaining packets ...
Time taken is 7370 cycles
====== Overall Traffic Statistics ======
====== Traffic class 0 ======
Packet latency average = 144.62 (1 samples)
	minimum = 34 (1 samples)
	maximum = 581 (1 samples)
Network latency average = 139.778 (1 samples)
	minimum = 34 (1 samples)
	maximum = 581 (1 samples)
Flit latency average = 87.1245 (1 samples)
	minimum = 10 (1 samples)
	maximum = 555 (1 samples)
Fragmentation average = 60.129 (1 samples)
	minimum = 0 (1 samples)
	maximum = 226 (1 samples)
Injected packet rate average = 0.00716016 (1 samples)
	minimum = 0.00425 (1 samples)
	maximum = 0.01 (1 samples)
Accepted packet rate average = 0.00705859 (1 samples)
	minimum = 0.00325 (1 samples)
	maximum = 0.01125 (1 samples)
Injected flit rate average = 0.143078 (1 samples)
	minimum = 0.085 (1 samples)
	maximum = 0.2 (1 samples)
Accepted flit rate average = 0.142051 (1 samples)
	minimum = 0.065 (1 samples)
	maximum = 0.22025 (1 samples)
Injected packet size average = 19.9825 (1 samples)
Accepted packet size average = 20.1245 (1 samples)
Hops average = 11.6625 (1 samples)
Total run time 4.14912
