BEGIN Configuration File: ../../IL2236_project/verify/figure1/VAL/mesh88_lat
// $Id$

// Copyright (c) 2007-2015, Trustees of The Leland Stanford Junior University
// All rights reserved.
//
// Redistribution and use in source and binary forms, with or without
// modification, are permitted provided that the following conditions are met:
//
// Redistributions of source code must retain the above copyright notice, this
// list of conditions and the following disclaimer.
// Redistributions in binary form must reproduce the above copyright notice,
// this list of conditions and the following disclaimer in the documentation
// and/or other materials provided with the distribution.
//
// THIS SOFTWARE IS PROVIDED BY THE COPYRIGHT HOLDERS AND CONTRIBUTORS "AS IS"
// AND ANY EXPRESS OR IMPLIED WARRANTIES, INCLUDING, BUT NOT LIMITED TO, THE
// IMPLIED WARRANTIES OF MERCHANTABILITY AND FITNESS FOR A PARTICULAR PURPOSE
// ARE DISCLAIMED. IN NO EVENT SHALL THE COPYRIGHT OWNER OR CONTRIBUTORS BE
// LIABLE FOR ANY DIRECT, INDIRECT, INCIDENTAL, SPECIAL, EXEMPLARY, OR
// CONSEQUENTIAL DAMAGES (INCLUDING, BUT NOT LIMITED TO, PROCUREMENT OF
// SUBSTITUTE GOODS OR SERVICES; LOSS OF USE, DATA, OR PROFITS; OR BUSINESS
// INTERRUPTION) HOWEVER CAUSED AND ON ANY THEORY OF LIABILITY, WHETHER IN
// CONTRACT, STRICT LIABILITY, OR TORT (INCLUDING NEGLIGENCE OR OTHERWISE)
// ARISING IN ANY WAY OUT OF THE USE OF THIS SOFTWARE, EVEN IF ADVISED OF THE
// POSSIBILITY OF SUCH DAMAGE.

//8X8 mesh with 20 flits per packet under injection mode
//injection rate here is packet per cycle, NOT flit per cycle

// Topology

topology = mesh;
k = 8;
n = 2;

// Routing
routing_function = valiant;

// Flow control
num_vcs     = 8;
vc_buf_size = 8;
wait_for_tail_credit = 1;

// Router architecture
vc_allocator = islip;
sw_allocator = islip;
alloc_iters  = 1;

credit_delay   = 2;
routing_delay  = 0;
vc_alloc_delay = 1;
sw_alloc_delay = 1;

input_speedup     = 2;
output_speedup    = 1;
internal_speedup  = 1.0;


// Traffic
traffic = uniform;
packet_size = 20;


// Simulation
sim_type = latency;

injection_rate = .0085;


END Configuration File: ../../IL2236_project/verify/figure1/VAL/mesh88_lat
Class 0:
Packet latency average = 160.33
	minimum = 38
	maximum = 466
Network latency average = 154.324
	minimum = 38
	maximum = 450
Slowest packet = 227
Flit latency average = 98.1492
	minimum = 14
	maximum = 411
Slowest flit = 4559
Fragmentation average = 67.3991
	minimum = 2
	maximum = 230
Injected packet rate average = 0.00820313
	minimum = 0.003 (at node 50)
	maximum = 0.016 (at node 17)
Accepted packet rate average = 0.00704688
	minimum = 0.001 (at node 54)
	maximum = 0.012 (at node 33)
Injected flit rate average = 0.161938
	minimum = 0.06 (at node 50)
	maximum = 0.32 (at node 17)
Accepted flit rate average= 0.148109
	minimum = 0.02 (at node 54)
	maximum = 0.24 (at node 33)
Injected packet length average = 19.741
Accepted packet length average = 21.0177
Total in-flight flits = 1021 (0 measured)
latency change    = 1
throughput change = 1
Class 0:
Packet latency average = 159.001
	minimum = 38
	maximum = 466
Network latency average = 153.004
	minimum = 38
	maximum = 452
Slowest packet = 227
Flit latency average = 96.6119
	minimum = 14
	maximum = 433
Slowest flit = 6679
Fragmentation average = 67.1081
	minimum = 2
	maximum = 230
Injected packet rate average = 0.00830469
	minimum = 0.004 (at node 19)
	maximum = 0.014 (at node 37)
Accepted packet rate average = 0.00751562
	minimum = 0.004 (at node 9)
	maximum = 0.012 (at node 39)
Injected flit rate average = 0.164578
	minimum = 0.08 (at node 19)
	maximum = 0.28 (at node 55)
Accepted flit rate average= 0.154125
	minimum = 0.08 (at node 9)
	maximum = 0.243 (at node 39)
Injected packet length average = 19.8175
Accepted packet length average = 20.5073
Total in-flight flits = 1532 (0 measured)
latency change    = 0.00836056
throughput change = 0.0390308
Class 0:
Packet latency average = 188.14
	minimum = 51
	maximum = 608
Network latency average = 181.236
	minimum = 51
	maximum = 608
Slowest packet = 980
Flit latency average = 116.772
	minimum = 11
	maximum = 580
Slowest flit = 19619
Fragmentation average = 80.9145
	minimum = 9
	maximum = 239
Injected packet rate average = 0.00865625
	minimum = 0.003 (at node 57)
	maximum = 0.016 (at node 49)
Accepted packet rate average = 0.00895312
	minimum = 0.003 (at node 52)
	maximum = 0.015 (at node 47)
Injected flit rate average = 0.17375
	minimum = 0.06 (at node 57)
	maximum = 0.32 (at node 49)
Accepted flit rate average= 0.178969
	minimum = 0.06 (at node 52)
	maximum = 0.296 (at node 47)
Injected packet length average = 20.0722
Accepted packet length average = 19.9895
Total in-flight flits = 1158 (0 measured)
latency change    = 0.154877
throughput change = 0.138816
Warmed up ...Time used is 3000 cycles
Class 0:
Packet latency average = 166.202
	minimum = 33
	maximum = 595
Network latency average = 158.565
	minimum = 33
	maximum = 579
Slowest packet = 1709
Flit latency average = 100.802
	minimum = 10
	maximum = 560
Slowest flit = 34199
Fragmentation average = 69.5432
	minimum = 4
	maximum = 216
Injected packet rate average = 0.00828125
	minimum = 0.002 (at node 31)
	maximum = 0.015 (at node 24)
Accepted packet rate average = 0.00832813
	minimum = 0.003 (at node 46)
	maximum = 0.016 (at node 22)
Injected flit rate average = 0.166125
	minimum = 0.04 (at node 31)
	maximum = 0.319 (at node 24)
Accepted flit rate average= 0.166016
	minimum = 0.06 (at node 46)
	maximum = 0.339 (at node 22)
Injected packet length average = 20.0604
Accepted packet length average = 19.9343
Total in-flight flits = 1133 (1133 measured)
latency change    = 0.131995
throughput change = 0.0780235
Class 0:
Packet latency average = 165.005
	minimum = 33
	maximum = 595
Network latency average = 158.324
	minimum = 33
	maximum = 579
Slowest packet = 1709
Flit latency average = 99.8573
	minimum = 10
	maximum = 560
Slowest flit = 34199
Fragmentation average = 70.7738
	minimum = 0
	maximum = 216
Injected packet rate average = 0.00814844
	minimum = 0.004 (at node 31)
	maximum = 0.0135 (at node 24)
Accepted packet rate average = 0.00820313
	minimum = 0.0045 (at node 15)
	maximum = 0.0135 (at node 22)
Injected flit rate average = 0.16318
	minimum = 0.078 (at node 54)
	maximum = 0.2795 (at node 24)
Accepted flit rate average= 0.164164
	minimum = 0.0915 (at node 15)
	maximum = 0.281 (at node 22)
Injected packet length average = 20.0259
Accepted packet length average = 20.0124
Total in-flight flits = 1005 (1005 measured)
latency change    = 0.00725195
throughput change = 0.0112787
Class 0:
Packet latency average = 165.088
	minimum = 33
	maximum = 595
Network latency average = 158.371
	minimum = 26
	maximum = 579
Slowest packet = 1709
Flit latency average = 100.152
	minimum = 6
	maximum = 560
Slowest flit = 34199
Fragmentation average = 70.7118
	minimum = 0
	maximum = 248
Injected packet rate average = 0.00807813
	minimum = 0.00466667 (at node 31)
	maximum = 0.012 (at node 12)
Accepted packet rate average = 0.00808854
	minimum = 0.005 (at node 21)
	maximum = 0.012 (at node 41)
Injected flit rate average = 0.161667
	minimum = 0.0923333 (at node 38)
	maximum = 0.24 (at node 12)
Accepted flit rate average= 0.161302
	minimum = 0.0943333 (at node 21)
	maximum = 0.234667 (at node 7)
Injected packet length average = 20.0129
Accepted packet length average = 19.942
Total in-flight flits = 1208 (1208 measured)
latency change    = 0.000504033
throughput change = 0.017743
Class 0:
Packet latency average = 168.615
	minimum = 33
	maximum = 625
Network latency average = 161.37
	minimum = 26
	maximum = 625
Slowest packet = 3077
Flit latency average = 102.13
	minimum = 6
	maximum = 606
Slowest flit = 61559
Fragmentation average = 71.694
	minimum = 0
	maximum = 248
Injected packet rate average = 0.00817578
	minimum = 0.00525 (at node 38)
	maximum = 0.0115 (at node 12)
Accepted packet rate average = 0.00813281
	minimum = 0.00575 (at node 4)
	maximum = 0.01075 (at node 3)
Injected flit rate average = 0.163508
	minimum = 0.10375 (at node 38)
	maximum = 0.23 (at node 12)
Accepted flit rate average= 0.162934
	minimum = 0.11075 (at node 21)
	maximum = 0.22375 (at node 22)
Injected packet length average = 19.999
Accepted packet length average = 20.0341
Total in-flight flits = 1307 (1307 measured)
latency change    = 0.0209152
throughput change = 0.0100133
Draining all recorded packets ...
Draining remaining packets ...
Time taken is 7598 cycles
====== Overall Traffic Statistics ======
====== Traffic class 0 ======
Packet latency average = 170.347 (1 samples)
	minimum = 33 (1 samples)
	maximum = 625 (1 samples)
Network latency average = 163.105 (1 samples)
	minimum = 26 (1 samples)
	maximum = 625 (1 samples)
Flit latency average = 103.553 (1 samples)
	minimum = 6 (1 samples)
	maximum = 606 (1 samples)
Fragmentation average = 72.594 (1 samples)
	minimum = 0 (1 samples)
	maximum = 248 (1 samples)
Injected packet rate average = 0.00817578 (1 samples)
	minimum = 0.00525 (1 samples)
	maximum = 0.0115 (1 samples)
Accepted packet rate average = 0.00813281 (1 samples)
	minimum = 0.00575 (1 samples)
	maximum = 0.01075 (1 samples)
Injected flit rate average = 0.163508 (1 samples)
	minimum = 0.10375 (1 samples)
	maximum = 0.23 (1 samples)
Accepted flit rate average = 0.162934 (1 samples)
	minimum = 0.11075 (1 samples)
	maximum = 0.22375 (1 samples)
Injected packet size average = 19.999 (1 samples)
Accepted packet size average = 20.0341 (1 samples)
Hops average = 11.5701 (1 samples)
Total run time 4.91498
