BEGIN Configuration File: ../../IL2236_project/verify/figure1/VAL/mesh88_lat
// $Id$

// Copyright (c) 2007-2015, Trustees of The Leland Stanford Junior University
// All rights reserved.
//
// Redistribution and use in source and binary forms, with or without
// modification, are permitted provided that the following conditions are met:
//
// Redistributions of source code must retain the above copyright notice, this
// list of conditions and the following disclaimer.
// Redistributions in binary form must reproduce the above copyright notice,
// this list of conditions and the following disclaimer in the documentation
// and/or other materials provided with the distribution.
//
// THIS SOFTWARE IS PROVIDED BY THE COPYRIGHT HOLDERS AND CONTRIBUTORS "AS IS"
// AND ANY EXPRESS OR IMPLIED WARRANTIES, INCLUDING, BUT NOT LIMITED TO, THE
// IMPLIED WARRANTIES OF MERCHANTABILITY AND FITNESS FOR A PARTICULAR PURPOSE
// ARE DISCLAIMED. IN NO EVENT SHALL THE COPYRIGHT OWNER OR CONTRIBUTORS BE
// LIABLE FOR ANY DIRECT, INDIRECT, INCIDENTAL, SPECIAL, EXEMPLARY, OR
// CONSEQUENTIAL DAMAGES (INCLUDING, BUT NOT LIMITED TO, PROCUREMENT OF
// SUBSTITUTE GOODS OR SERVICES; LOSS OF USE, DATA, OR PROFITS; OR BUSINESS
// INTERRUPTION) HOWEVER CAUSED AND ON ANY THEORY OF LIABILITY, WHETHER IN
// CONTRACT, STRICT LIABILITY, OR TORT (INCLUDING NEGLIGENCE OR OTHERWISE)
// ARISING IN ANY WAY OUT OF THE USE OF THIS SOFTWARE, EVEN IF ADVISED OF THE
// POSSIBILITY OF SUCH DAMAGE.

//8X8 mesh with 20 flits per packet under injection mode
//injection rate here is packet per cycle, NOT flit per cycle

// Topology

topology = mesh;
k = 8;
n = 2;

// Routing
routing_function = valiant;

// Flow control
num_vcs     = 8;
vc_buf_size = 8;
wait_for_tail_credit = 1;

// Router architecture
vc_allocator = islip;
sw_allocator = islip;
alloc_iters  = 1;

credit_delay   = 2;
routing_delay  = 0;
vc_alloc_delay = 1;
sw_alloc_delay = 1;

input_speedup     = 2;
output_speedup    = 1;
internal_speedup  = 1.0;


// Traffic
traffic = uniform;
packet_size = 20;


// Simulation
sim_type = latency;

injection_rate = .0090;


END Configuration File: ../../IL2236_project/verify/figure1/VAL/mesh88_lat
Class 0:
Packet latency average = 165.156
	minimum = 41
	maximum = 429
Network latency average = 158.089
	minimum = 29
	maximum = 419
Slowest packet = 225
Flit latency average = 98.8036
	minimum = 10
	maximum = 400
Slowest flit = 4519
Fragmentation average = 73.2283
	minimum = 0
	maximum = 235
Injected packet rate average = 0.00865625
	minimum = 0.001 (at node 12)
	maximum = 0.015 (at node 27)
Accepted packet rate average = 0.00739062
	minimum = 0.001 (at node 54)
	maximum = 0.013 (at node 39)
Injected flit rate average = 0.170906
	minimum = 0.02 (at node 12)
	maximum = 0.3 (at node 27)
Accepted flit rate average= 0.155688
	minimum = 0.02 (at node 54)
	maximum = 0.272 (at node 60)
Injected packet length average = 19.7437
Accepted packet length average = 21.0655
Total in-flight flits = 1116 (0 measured)
latency change    = 1
throughput change = 1
Class 0:
Packet latency average = 165.54
	minimum = 33
	maximum = 429
Network latency average = 157.705
	minimum = 29
	maximum = 419
Slowest packet = 225
Flit latency average = 98.2852
	minimum = 10
	maximum = 400
Slowest flit = 4519
Fragmentation average = 73.5463
	minimum = 0
	maximum = 240
Injected packet rate average = 0.00876563
	minimum = 0.004 (at node 49)
	maximum = 0.013 (at node 45)
Accepted packet rate average = 0.0079375
	minimum = 0.005 (at node 52)
	maximum = 0.0135 (at node 27)
Injected flit rate average = 0.173516
	minimum = 0.08 (at node 49)
	maximum = 0.26 (at node 55)
Accepted flit rate average= 0.162961
	minimum = 0.1 (at node 52)
	maximum = 0.27 (at node 27)
Injected packet length average = 19.795
Accepted packet length average = 20.5305
Total in-flight flits = 1581 (0 measured)
latency change    = 0.00231911
throughput change = 0.044633
Class 0:
Packet latency average = 211.776
	minimum = 48
	maximum = 747
Network latency average = 199.407
	minimum = 48
	maximum = 747
Slowest packet = 1215
Flit latency average = 134.02
	minimum = 14
	maximum = 781
Slowest flit = 25329
Fragmentation average = 81.5176
	minimum = 7
	maximum = 251
Injected packet rate average = 0.00923437
	minimum = 0.002 (at node 14)
	maximum = 0.018 (at node 44)
Accepted packet rate average = 0.00932812
	minimum = 0.002 (at node 22)
	maximum = 0.016 (at node 38)
Injected flit rate average = 0.185891
	minimum = 0.04 (at node 14)
	maximum = 0.355 (at node 44)
Accepted flit rate average= 0.187609
	minimum = 0.031 (at node 25)
	maximum = 0.322 (at node 38)
Injected packet length average = 20.1303
Accepted packet length average = 20.1122
Total in-flight flits = 1394 (0 measured)
latency change    = 0.218322
throughput change = 0.131382
Warmed up ...Time used is 3000 cycles
Class 0:
Packet latency average = 201.681
	minimum = 43
	maximum = 699
Network latency average = 188.801
	minimum = 43
	maximum = 699
Slowest packet = 1884
Flit latency average = 126.178
	minimum = 10
	maximum = 833
Slowest flit = 25335
Fragmentation average = 81.5793
	minimum = 8
	maximum = 226
Injected packet rate average = 0.00898437
	minimum = 0.002 (at node 57)
	maximum = 0.019 (at node 38)
Accepted packet rate average = 0.00895312
	minimum = 0.003 (at node 11)
	maximum = 0.017 (at node 34)
Injected flit rate average = 0.179703
	minimum = 0.04 (at node 57)
	maximum = 0.385 (at node 38)
Accepted flit rate average= 0.177687
	minimum = 0.06 (at node 11)
	maximum = 0.322 (at node 34)
Injected packet length average = 20.0017
Accepted packet length average = 19.8464
Total in-flight flits = 1522 (1522 measured)
latency change    = 0.0500533
throughput change = 0.0558389
Class 0:
Packet latency average = 196.693
	minimum = 39
	maximum = 699
Network latency average = 186.152
	minimum = 39
	maximum = 699
Slowest packet = 1884
Flit latency average = 121.999
	minimum = 10
	maximum = 833
Slowest flit = 25335
Fragmentation average = 81.235
	minimum = 1
	maximum = 226
Injected packet rate average = 0.00876563
	minimum = 0.0035 (at node 42)
	maximum = 0.014 (at node 26)
Accepted packet rate average = 0.00882812
	minimum = 0.0035 (at node 57)
	maximum = 0.0135 (at node 22)
Injected flit rate average = 0.175469
	minimum = 0.0735 (at node 42)
	maximum = 0.28 (at node 30)
Accepted flit rate average= 0.176484
	minimum = 0.0795 (at node 57)
	maximum = 0.27 (at node 55)
Injected packet length average = 20.0178
Accepted packet length average = 19.9912
Total in-flight flits = 1244 (1244 measured)
latency change    = 0.025357
throughput change = 0.00681718
Class 0:
Packet latency average = 201.153
	minimum = 39
	maximum = 699
Network latency average = 189.953
	minimum = 39
	maximum = 699
Slowest packet = 1884
Flit latency average = 125.855
	minimum = 10
	maximum = 857
Slowest flit = 58170
Fragmentation average = 81.4946
	minimum = 1
	maximum = 226
Injected packet rate average = 0.00866146
	minimum = 0.00433333 (at node 42)
	maximum = 0.012 (at node 30)
Accepted packet rate average = 0.00871354
	minimum = 0.00466667 (at node 57)
	maximum = 0.0123333 (at node 55)
Injected flit rate average = 0.173156
	minimum = 0.0843333 (at node 42)
	maximum = 0.241667 (at node 38)
Accepted flit rate average= 0.174005
	minimum = 0.0933333 (at node 57)
	maximum = 0.245 (at node 55)
Injected packet length average = 19.9916
Accepted packet length average = 19.9695
Total in-flight flits = 1245 (1245 measured)
latency change    = 0.0221722
throughput change = 0.0142477
Class 0:
Packet latency average = 200.949
	minimum = 32
	maximum = 954
Network latency average = 190.12
	minimum = 32
	maximum = 954
Slowest packet = 2908
Flit latency average = 125.427
	minimum = 6
	maximum = 912
Slowest flit = 58179
Fragmentation average = 82.1992
	minimum = 1
	maximum = 229
Injected packet rate average = 0.00876953
	minimum = 0.0055 (at node 41)
	maximum = 0.01175 (at node 17)
Accepted packet rate average = 0.00872266
	minimum = 0.006 (at node 36)
	maximum = 0.012 (at node 41)
Injected flit rate average = 0.175246
	minimum = 0.10825 (at node 41)
	maximum = 0.235 (at node 17)
Accepted flit rate average= 0.174367
	minimum = 0.11775 (at node 36)
	maximum = 0.242 (at node 24)
Injected packet length average = 19.9835
Accepted packet length average = 19.9901
Total in-flight flits = 1656 (1656 measured)
latency change    = 0.0010144
throughput change = 0.00207596
Draining all recorded packets ...
Draining remaining packets ...
Time taken is 7672 cycles
====== Overall Traffic Statistics ======
====== Traffic class 0 ======
Packet latency average = 203.703 (1 samples)
	minimum = 32 (1 samples)
	maximum = 954 (1 samples)
Network latency average = 192.791 (1 samples)
	minimum = 32 (1 samples)
	maximum = 954 (1 samples)
Flit latency average = 127.58 (1 samples)
	minimum = 6 (1 samples)
	maximum = 912 (1 samples)
Fragmentation average = 83.289 (1 samples)
	minimum = 1 (1 samples)
	maximum = 231 (1 samples)
Injected packet rate average = 0.00876953 (1 samples)
	minimum = 0.0055 (1 samples)
	maximum = 0.01175 (1 samples)
Accepted packet rate average = 0.00872266 (1 samples)
	minimum = 0.006 (1 samples)
	maximum = 0.012 (1 samples)
Injected flit rate average = 0.175246 (1 samples)
	minimum = 0.10825 (1 samples)
	maximum = 0.235 (1 samples)
Accepted flit rate average = 0.174367 (1 samples)
	minimum = 0.11775 (1 samples)
	maximum = 0.242 (1 samples)
Injected packet size average = 19.9835 (1 samples)
Accepted packet size average = 19.9901 (1 samples)
Hops average = 11.6661 (1 samples)
Total run time 5.31841
