BEGIN Configuration File: ../../IL2236_project/verify/figure1/VAL/mesh88_lat
// $Id$

// Copyright (c) 2007-2015, Trustees of The Leland Stanford Junior University
// All rights reserved.
//
// Redistribution and use in source and binary forms, with or without
// modification, are permitted provided that the following conditions are met:
//
// Redistributions of source code must retain the above copyright notice, this
// list of conditions and the following disclaimer.
// Redistributions in binary form must reproduce the above copyright notice,
// this list of conditions and the following disclaimer in the documentation
// and/or other materials provided with the distribution.
//
// THIS SOFTWARE IS PROVIDED BY THE COPYRIGHT HOLDERS AND CONTRIBUTORS "AS IS"
// AND ANY EXPRESS OR IMPLIED WARRANTIES, INCLUDING, BUT NOT LIMITED TO, THE
// IMPLIED WARRANTIES OF MERCHANTABILITY AND FITNESS FOR A PARTICULAR PURPOSE
// ARE DISCLAIMED. IN NO EVENT SHALL THE COPYRIGHT OWNER OR CONTRIBUTORS BE
// LIABLE FOR ANY DIRECT, INDIRECT, INCIDENTAL, SPECIAL, EXEMPLARY, OR
// CONSEQUENTIAL DAMAGES (INCLUDING, BUT NOT LIMITED TO, PROCUREMENT OF
// SUBSTITUTE GOODS OR SERVICES; LOSS OF USE, DATA, OR PROFITS; OR BUSINESS
// INTERRUPTION) HOWEVER CAUSED AND ON ANY THEORY OF LIABILITY, WHETHER IN
// CONTRACT, STRICT LIABILITY, OR TORT (INCLUDING NEGLIGENCE OR OTHERWISE)
// ARISING IN ANY WAY OUT OF THE USE OF THIS SOFTWARE, EVEN IF ADVISED OF THE
// POSSIBILITY OF SUCH DAMAGE.

//8X8 mesh with 20 flits per packet under injection mode
//injection rate here is packet per cycle, NOT flit per cycle

// Topology

topology = mesh;
k = 8;
n = 2;

// Routing
routing_function = valiant;

// Flow control
num_vcs     = 8;
vc_buf_size = 8;
wait_for_tail_credit = 1;

// Router architecture
vc_allocator = islip;
sw_allocator = islip;
alloc_iters  = 1;

credit_delay   = 2;
routing_delay  = 0;
vc_alloc_delay = 1;
sw_alloc_delay = 1;

input_speedup     = 2;
output_speedup    = 1;
internal_speedup  = 1.0;


// Traffic
traffic = uniform;
packet_size = 20;


// Simulation
sim_type = latency;

injection_rate = .0165;


END Configuration File: ../../IL2236_project/verify/figure1/VAL/mesh88_lat
Class 0:
Packet latency average = 294.813
	minimum = 57
	maximum = 763
Network latency average = 258.319
	minimum = 57
	maximum = 698
Slowest packet = 217
Flit latency average = 183.449
	minimum = 14
	maximum = 754
Slowest flit = 4436
Fragmentation average = 100.608
	minimum = 6
	maximum = 224
Injected packet rate average = 0.0125156
	minimum = 0.007 (at node 22)
	maximum = 0.021 (at node 15)
Accepted packet rate average = 0.008375
	minimum = 0.003 (at node 23)
	maximum = 0.014 (at node 10)
Injected flit rate average = 0.243734
	minimum = 0.128 (at node 22)
	maximum = 0.42 (at node 15)
Accepted flit rate average= 0.181469
	minimum = 0.074 (at node 54)
	maximum = 0.308 (at node 51)
Injected packet length average = 19.4744
Accepted packet length average = 21.6679
Total in-flight flits = 4406 (0 measured)
latency change    = 1
throughput change = 1
Class 0:
Packet latency average = 463.616
	minimum = 54
	maximum = 1542
Network latency average = 327.503
	minimum = 52
	maximum = 1279
Slowest packet = 435
Flit latency average = 245.797
	minimum = 14
	maximum = 1244
Slowest flit = 11289
Fragmentation average = 94.7936
	minimum = 4
	maximum = 255
Injected packet rate average = 0.0115
	minimum = 0.0065 (at node 61)
	maximum = 0.0215 (at node 15)
Accepted packet rate average = 0.0093125
	minimum = 0.0035 (at node 50)
	maximum = 0.015 (at node 39)
Injected flit rate average = 0.226141
	minimum = 0.124 (at node 61)
	maximum = 0.427 (at node 15)
Accepted flit rate average= 0.192422
	minimum = 0.084 (at node 50)
	maximum = 0.315 (at node 39)
Injected packet length average = 19.6644
Accepted packet length average = 20.6628
Total in-flight flits = 4810 (0 measured)
latency change    = 0.3641
throughput change = 0.0569225
Average latency for class 0 exceeded 500 cycles. Aborting simulation.
Too many sample periods needed to converge
Simulation unstable, ending ...
Total run time 1.8468
