BEGIN Configuration File: ../../IL2236_project/verify/figure1/VAL/mesh88_lat
// $Id$

// Copyright (c) 2007-2015, Trustees of The Leland Stanford Junior University
// All rights reserved.
//
// Redistribution and use in source and binary forms, with or without
// modification, are permitted provided that the following conditions are met:
//
// Redistributions of source code must retain the above copyright notice, this
// list of conditions and the following disclaimer.
// Redistributions in binary form must reproduce the above copyright notice,
// this list of conditions and the following disclaimer in the documentation
// and/or other materials provided with the distribution.
//
// THIS SOFTWARE IS PROVIDED BY THE COPYRIGHT HOLDERS AND CONTRIBUTORS "AS IS"
// AND ANY EXPRESS OR IMPLIED WARRANTIES, INCLUDING, BUT NOT LIMITED TO, THE
// IMPLIED WARRANTIES OF MERCHANTABILITY AND FITNESS FOR A PARTICULAR PURPOSE
// ARE DISCLAIMED. IN NO EVENT SHALL THE COPYRIGHT OWNER OR CONTRIBUTORS BE
// LIABLE FOR ANY DIRECT, INDIRECT, INCIDENTAL, SPECIAL, EXEMPLARY, OR
// CONSEQUENTIAL DAMAGES (INCLUDING, BUT NOT LIMITED TO, PROCUREMENT OF
// SUBSTITUTE GOODS OR SERVICES; LOSS OF USE, DATA, OR PROFITS; OR BUSINESS
// INTERRUPTION) HOWEVER CAUSED AND ON ANY THEORY OF LIABILITY, WHETHER IN
// CONTRACT, STRICT LIABILITY, OR TORT (INCLUDING NEGLIGENCE OR OTHERWISE)
// ARISING IN ANY WAY OUT OF THE USE OF THIS SOFTWARE, EVEN IF ADVISED OF THE
// POSSIBILITY OF SUCH DAMAGE.

//8X8 mesh with 20 flits per packet under injection mode
//injection rate here is packet per cycle, NOT flit per cycle

// Topology

topology = mesh;
k = 8;
n = 2;

// Routing
routing_function = valiant;

// Flow control
num_vcs     = 8;
vc_buf_size = 8;
wait_for_tail_credit = 1;

// Router architecture
vc_allocator = islip;
sw_allocator = islip;
alloc_iters  = 1;

credit_delay   = 2;
routing_delay  = 0;
vc_alloc_delay = 1;
sw_alloc_delay = 1;

input_speedup     = 2;
output_speedup    = 1;
internal_speedup  = 1.0;


// Traffic
traffic = uniform;
packet_size = 20;


// Simulation
sim_type = latency;

injection_rate = .0170;


END Configuration File: ../../IL2236_project/verify/figure1/VAL/mesh88_lat
Class 0:
Packet latency average = 282.377
	minimum = 50
	maximum = 755
Network latency average = 240.966
	minimum = 41
	maximum = 670
Slowest packet = 127
Flit latency average = 171.376
	minimum = 6
	maximum = 798
Slowest flit = 3377
Fragmentation average = 96.5573
	minimum = 8
	maximum = 252
Injected packet rate average = 0.0133125
	minimum = 0.003 (at node 20)
	maximum = 0.02 (at node 9)
Accepted packet rate average = 0.00885937
	minimum = 0.003 (at node 11)
	maximum = 0.016 (at node 51)
Injected flit rate average = 0.258703
	minimum = 0.048 (at node 20)
	maximum = 0.388 (at node 9)
Accepted flit rate average= 0.189828
	minimum = 0.06 (at node 17)
	maximum = 0.349 (at node 51)
Injected packet length average = 19.4331
Accepted packet length average = 21.4268
Total in-flight flits = 4891 (0 measured)
latency change    = 1
throughput change = 1
Class 0:
Packet latency average = 453.634
	minimum = 50
	maximum = 1430
Network latency average = 319.671
	minimum = 31
	maximum = 1130
Slowest packet = 227
Flit latency average = 239.971
	minimum = 6
	maximum = 1396
Slowest flit = 10642
Fragmentation average = 93.536
	minimum = 2
	maximum = 252
Injected packet rate average = 0.0115859
	minimum = 0.0065 (at node 21)
	maximum = 0.018 (at node 9)
Accepted packet rate average = 0.00944531
	minimum = 0.005 (at node 19)
	maximum = 0.0155 (at node 27)
Injected flit rate average = 0.227867
	minimum = 0.128 (at node 21)
	maximum = 0.3585 (at node 9)
Accepted flit rate average= 0.19468
	minimum = 0.1145 (at node 19)
	maximum = 0.3175 (at node 27)
Injected packet length average = 19.6676
Accepted packet length average = 20.6112
Total in-flight flits = 4741 (0 measured)
latency change    = 0.377522
throughput change = 0.0249207
Average latency for class 0 exceeded 500 cycles. Aborting simulation.
Too many sample periods needed to converge
Simulation unstable, ending ...
Total run time 1.83208
