BEGIN Configuration File: ../../IL2236_project/verify/figure1/VAL/mesh88_lat
// $Id$

// Copyright (c) 2007-2015, Trustees of The Leland Stanford Junior University
// All rights reserved.
//
// Redistribution and use in source and binary forms, with or without
// modification, are permitted provided that the following conditions are met:
//
// Redistributions of source code must retain the above copyright notice, this
// list of conditions and the following disclaimer.
// Redistributions in binary form must reproduce the above copyright notice,
// this list of conditions and the following disclaimer in the documentation
// and/or other materials provided with the distribution.
//
// THIS SOFTWARE IS PROVIDED BY THE COPYRIGHT HOLDERS AND CONTRIBUTORS "AS IS"
// AND ANY EXPRESS OR IMPLIED WARRANTIES, INCLUDING, BUT NOT LIMITED TO, THE
// IMPLIED WARRANTIES OF MERCHANTABILITY AND FITNESS FOR A PARTICULAR PURPOSE
// ARE DISCLAIMED. IN NO EVENT SHALL THE COPYRIGHT OWNER OR CONTRIBUTORS BE
// LIABLE FOR ANY DIRECT, INDIRECT, INCIDENTAL, SPECIAL, EXEMPLARY, OR
// CONSEQUENTIAL DAMAGES (INCLUDING, BUT NOT LIMITED TO, PROCUREMENT OF
// SUBSTITUTE GOODS OR SERVICES; LOSS OF USE, DATA, OR PROFITS; OR BUSINESS
// INTERRUPTION) HOWEVER CAUSED AND ON ANY THEORY OF LIABILITY, WHETHER IN
// CONTRACT, STRICT LIABILITY, OR TORT (INCLUDING NEGLIGENCE OR OTHERWISE)
// ARISING IN ANY WAY OUT OF THE USE OF THIS SOFTWARE, EVEN IF ADVISED OF THE
// POSSIBILITY OF SUCH DAMAGE.

//8X8 mesh with 20 flits per packet under injection mode
//injection rate here is packet per cycle, NOT flit per cycle

// Topology

topology = mesh;
k = 8;
n = 2;

// Routing
routing_function = valiant;

// Flow control
num_vcs     = 8;
vc_buf_size = 8;
wait_for_tail_credit = 1;

// Router architecture
vc_allocator = islip;
sw_allocator = islip;
alloc_iters  = 1;

credit_delay   = 2;
routing_delay  = 0;
vc_alloc_delay = 1;
sw_alloc_delay = 1;

input_speedup     = 2;
output_speedup    = 1;
internal_speedup  = 1.0;


// Traffic
traffic = uniform;
packet_size = 20;


// Simulation
sim_type = latency;

injection_rate = .0180;


END Configuration File: ../../IL2236_project/verify/figure1/VAL/mesh88_lat
Class 0:
Packet latency average = 301.466
	minimum = 41
	maximum = 790
Network latency average = 254.413
	minimum = 41
	maximum = 728
Slowest packet = 28
Flit latency average = 182.139
	minimum = 10
	maximum = 741
Slowest flit = 4432
Fragmentation average = 93.712
	minimum = 4
	maximum = 289
Injected packet rate average = 0.0127969
	minimum = 0.007 (at node 9)
	maximum = 0.019 (at node 7)
Accepted packet rate average = 0.008625
	minimum = 0.003 (at node 22)
	maximum = 0.014 (at node 20)
Injected flit rate average = 0.249391
	minimum = 0.128 (at node 42)
	maximum = 0.376 (at node 7)
Accepted flit rate average= 0.183141
	minimum = 0.06 (at node 29)
	maximum = 0.291 (at node 51)
Injected packet length average = 19.4884
Accepted packet length average = 21.2337
Total in-flight flits = 4659 (0 measured)
latency change    = 1
throughput change = 1
Class 0:
Packet latency average = 497.195
	minimum = 41
	maximum = 1807
Network latency average = 329.539
	minimum = 41
	maximum = 1671
Slowest packet = 220
Flit latency average = 247.506
	minimum = 10
	maximum = 1627
Slowest flit = 4418
Fragmentation average = 91.3794
	minimum = 4
	maximum = 289
Injected packet rate average = 0.0110625
	minimum = 0.005 (at node 46)
	maximum = 0.019 (at node 41)
Accepted packet rate average = 0.00903906
	minimum = 0.0055 (at node 46)
	maximum = 0.0155 (at node 51)
Injected flit rate average = 0.217602
	minimum = 0.094 (at node 46)
	maximum = 0.38 (at node 41)
Accepted flit rate average= 0.186156
	minimum = 0.11 (at node 46)
	maximum = 0.31 (at node 51)
Injected packet length average = 19.6702
Accepted packet length average = 20.5946
Total in-flight flits = 4492 (0 measured)
latency change    = 0.393668
throughput change = 0.0161994
Average latency for class 0 exceeded 500 cycles. Aborting simulation.
Too many sample periods needed to converge
Simulation unstable, ending ...
Total run time 1.76351
