BEGIN Configuration File: ../../IL2236_project/verify/figure7/162/mesh88_lat
// $Id$

// Copyright (c) 2007-2015, Trustees of The Leland Stanford Junior University
// All rights reserved.
//
// Redistribution and use in source and binary forms, with or without
// modification, are permitted provided that the following conditions are met:
//
// Redistributions of source code must retain the above copyright notice, this
// list of conditions and the following disclaimer.
// Redistributions in binary form must reproduce the above copyright notice,
// this list of conditions and the following disclaimer in the documentation
// and/or other materials provided with the distribution.
//
// THIS SOFTWARE IS PROVIDED BY THE COPYRIGHT HOLDERS AND CONTRIBUTORS "AS IS"
// AND ANY EXPRESS OR IMPLIED WARRANTIES, INCLUDING, BUT NOT LIMITED TO, THE
// IMPLIED WARRANTIES OF MERCHANTABILITY AND FITNESS FOR A PARTICULAR PURPOSE
// ARE DISCLAIMED. IN NO EVENT SHALL THE COPYRIGHT OWNER OR CONTRIBUTORS BE
// LIABLE FOR ANY DIRECT, INDIRECT, INCIDENTAL, SPECIAL, EXEMPLARY, OR
// CONSEQUENTIAL DAMAGES (INCLUDING, BUT NOT LIMITED TO, PROCUREMENT OF
// SUBSTITUTE GOODS OR SERVICES; LOSS OF USE, DATA, OR PROFITS; OR BUSINESS
// INTERRUPTION) HOWEVER CAUSED AND ON ANY THEORY OF LIABILITY, WHETHER IN
// CONTRACT, STRICT LIABILITY, OR TORT (INCLUDING NEGLIGENCE OR OTHERWISE)
// ARISING IN ANY WAY OUT OF THE USE OF THIS SOFTWARE, EVEN IF ADVISED OF THE
// POSSIBILITY OF SUCH DAMAGE.

//8X8 mesh with 20 flits per packet under injection mode
//injection rate here is packet per cycle, NOT flit per cycle

// Topology

topology = mesh;
k = 8;
n = 2;

// Routing
routing_function = dor;

// Flow control
num_vcs     = 16;
vc_buf_size = 2;
wait_for_tail_credit = 1;

// Router architecture
vc_allocator = islip;
sw_allocator = islip;
alloc_iters  = 1;

credit_delay   = 2;
routing_delay  = 0;
vc_alloc_delay = 1;
sw_alloc_delay = 1;

input_speedup     = 2;
output_speedup    = 1;
internal_speedup  = 1.0;


// Traffic
traffic = uniform;
packet_size = 20;


// Simulation
sim_type = latency;

injection_rate = .0010;


END Configuration File: ../../IL2236_project/verify/figure7/162/mesh88_lat
Class 0:
Packet latency average = 98.98
	minimum = 78
	maximum = 154
Network latency average = 96.08
	minimum = 78
	maximum = 122
Slowest packet = 9
Flit latency average = 30.194
	minimum = 14
	maximum = 60
Slowest flit = 602
Fragmentation average = 45.64
	minimum = 45
	maximum = 50
Injected packet rate average = 0.0008125
	minimum = 0 (at node 0)
	maximum = 0.005 (at node 35)
Accepted packet rate average = 0.00078125
	minimum = 0 (at node 0)
	maximum = 0.003 (at node 2)
Injected flit rate average = 0.0157969
	minimum = 0 (at node 0)
	maximum = 0.1 (at node 35)
Accepted flit rate average= 0.015625
	minimum = 0 (at node 0)
	maximum = 0.06 (at node 2)
Injected packet length average = 19.4423
Accepted packet length average = 20
Total in-flight flits = 40 (0 measured)
latency change    = 1
throughput change = 1
Class 0:
Packet latency average = 95.6481
	minimum = 70
	maximum = 154
Network latency average = 93.463
	minimum = 70
	maximum = 122
Slowest packet = 9
Flit latency average = 27.6941
	minimum = 6
	maximum = 60
Slowest flit = 602
Fragmentation average = 45.6759
	minimum = 45
	maximum = 50
Injected packet rate average = 0.000859375
	minimum = 0 (at node 7)
	maximum = 0.0025 (at node 35)
Accepted packet rate average = 0.00084375
	minimum = 0 (at node 20)
	maximum = 0.0035 (at node 18)
Injected flit rate average = 0.0171406
	minimum = 0 (at node 7)
	maximum = 0.05 (at node 35)
Accepted flit rate average= 0.0170625
	minimum = 0 (at node 20)
	maximum = 0.07 (at node 18)
Injected packet length average = 19.9455
Accepted packet length average = 20.2222
Total in-flight flits = 16 (0 measured)
latency change    = 0.0348345
throughput change = 0.0842491
Class 0:
Packet latency average = 96.1493
	minimum = 70
	maximum = 212
Network latency average = 91.4627
	minimum = 70
	maximum = 115
Slowest packet = 108
Flit latency average = 25.9628
	minimum = 6
	maximum = 53
Slowest flit = 2583
Fragmentation average = 45.7463
	minimum = 45
	maximum = 53
Injected packet rate average = 0.0010625
	minimum = 0 (at node 0)
	maximum = 0.003 (at node 19)
Accepted packet rate average = 0.00104688
	minimum = 0 (at node 4)
	maximum = 0.004 (at node 60)
Injected flit rate average = 0.0211094
	minimum = 0 (at node 0)
	maximum = 0.06 (at node 19)
Accepted flit rate average= 0.021
	minimum = 0 (at node 4)
	maximum = 0.074 (at node 12)
Injected packet length average = 19.8676
Accepted packet length average = 20.0597
Total in-flight flits = 32 (0 measured)
latency change    = 0.00521175
throughput change = 0.1875
Warmed up ...Time used is 3000 cycles
Class 0:
Packet latency average = 94.8448
	minimum = 74
	maximum = 142
Network latency average = 91.9655
	minimum = 74
	maximum = 126
Slowest packet = 178
Flit latency average = 26.1648
	minimum = 10
	maximum = 64
Slowest flit = 4102
Fragmentation average = 45.6552
	minimum = 45
	maximum = 50
Injected packet rate average = 0.00096875
	minimum = 0 (at node 0)
	maximum = 0.003 (at node 5)
Accepted packet rate average = 0.000953125
	minimum = 0 (at node 0)
	maximum = 0.004 (at node 39)
Injected flit rate average = 0.01925
	minimum = 0 (at node 0)
	maximum = 0.06 (at node 5)
Accepted flit rate average= 0.01925
	minimum = 0 (at node 0)
	maximum = 0.08 (at node 39)
Injected packet length average = 19.871
Accepted packet length average = 20.1967
Total in-flight flits = 40 (40 measured)
latency change    = 0.0137533
throughput change = 0.0909091
Class 0:
Packet latency average = 94.1909
	minimum = 74
	maximum = 159
Network latency average = 90.8909
	minimum = 74
	maximum = 126
Slowest packet = 178
Flit latency average = 25.3063
	minimum = 10
	maximum = 64
Slowest flit = 4102
Fragmentation average = 45.6273
	minimum = 45
	maximum = 50
Injected packet rate average = 0.000890625
	minimum = 0 (at node 0)
	maximum = 0.003 (at node 5)
Accepted packet rate average = 0.000882813
	minimum = 0 (at node 13)
	maximum = 0.0025 (at node 56)
Injected flit rate average = 0.0175703
	minimum = 0 (at node 0)
	maximum = 0.06 (at node 5)
Accepted flit rate average= 0.0175469
	minimum = 0 (at node 13)
	maximum = 0.05 (at node 56)
Injected packet length average = 19.7281
Accepted packet length average = 19.8761
Total in-flight flits = 66 (66 measured)
latency change    = 0.00694248
throughput change = 0.0970614
Class 0:
Packet latency average = 92.515
	minimum = 74
	maximum = 161
Network latency average = 89.988
	minimum = 74
	maximum = 126
Slowest packet = 178
Flit latency average = 24.5546
	minimum = 10
	maximum = 64
Slowest flit = 4102
Fragmentation average = 45.6048
	minimum = 45
	maximum = 52
Injected packet rate average = 0.000901042
	minimum = 0 (at node 15)
	maximum = 0.00266667 (at node 5)
Accepted packet rate average = 0.000885417
	minimum = 0 (at node 14)
	maximum = 0.00166667 (at node 5)
Injected flit rate average = 0.0178021
	minimum = 0 (at node 15)
	maximum = 0.0533333 (at node 5)
Accepted flit rate average= 0.0177031
	minimum = 0 (at node 14)
	maximum = 0.0333333 (at node 5)
Injected packet length average = 19.7572
Accepted packet length average = 19.9941
Total in-flight flits = 93 (93 measured)
latency change    = 0.0181153
throughput change = 0.00882613
Class 0:
Packet latency average = 92.5714
	minimum = 70
	maximum = 161
Network latency average = 90.4372
	minimum = 70
	maximum = 126
Slowest packet = 178
Flit latency average = 25.0143
	minimum = 6
	maximum = 64
Slowest flit = 4102
Fragmentation average = 45.5714
	minimum = 45
	maximum = 52
Injected packet rate average = 0.000925781
	minimum = 0 (at node 23)
	maximum = 0.002 (at node 5)
Accepted packet rate average = 0.000914063
	minimum = 0 (at node 26)
	maximum = 0.002 (at node 39)
Injected flit rate average = 0.0183789
	minimum = 0 (at node 23)
	maximum = 0.04 (at node 5)
Accepted flit rate average= 0.0183047
	minimum = 0 (at node 26)
	maximum = 0.04 (at node 39)
Injected packet length average = 19.8523
Accepted packet length average = 20.0256
Total in-flight flits = 86 (86 measured)
latency change    = 0.000609891
throughput change = 0.0328638
Class 0:
Packet latency average = 92.9967
	minimum = 70
	maximum = 161
Network latency average = 90.8191
	minimum = 70
	maximum = 126
Slowest packet = 178
Flit latency average = 25.3219
	minimum = 6
	maximum = 64
Slowest flit = 4102
Fragmentation average = 45.6382
	minimum = 45
	maximum = 52
Injected packet rate average = 0.000971875
	minimum = 0.0002 (at node 23)
	maximum = 0.0026 (at node 50)
Accepted packet rate average = 0.000959375
	minimum = 0.0002 (at node 14)
	maximum = 0.0018 (at node 12)
Injected flit rate average = 0.0194062
	minimum = 0.004 (at node 23)
	maximum = 0.052 (at node 50)
Accepted flit rate average= 0.0193313
	minimum = 0.004 (at node 14)
	maximum = 0.036 (at node 34)
Injected packet length average = 19.9678
Accepted packet length average = 20.1498
Total in-flight flits = 66 (66 measured)
latency change    = 0.00457309
throughput change = 0.0531038
Class 0:
Packet latency average = 93.4375
	minimum = 70
	maximum = 164
Network latency average = 90.7908
	minimum = 70
	maximum = 126
Slowest packet = 178
Flit latency average = 25.3054
	minimum = 6
	maximum = 64
Slowest flit = 4102
Fragmentation average = 45.6603
	minimum = 45
	maximum = 52
Injected packet rate average = 0.000973958
	minimum = 0.000166667 (at node 33)
	maximum = 0.00233333 (at node 50)
Accepted packet rate average = 0.000966146
	minimum = 0.000333333 (at node 58)
	maximum = 0.002 (at node 34)
Injected flit rate average = 0.0194193
	minimum = 0.00333333 (at node 33)
	maximum = 0.0466667 (at node 50)
Accepted flit rate average= 0.0193568
	minimum = 0.00666667 (at node 58)
	maximum = 0.04 (at node 34)
Injected packet length average = 19.9385
Accepted packet length average = 20.035
Total in-flight flits = 79 (79 measured)
latency change    = 0.00471748
throughput change = 0.00131844
Class 0:
Packet latency average = 93.3349
	minimum = 70
	maximum = 164
Network latency average = 91.0377
	minimum = 70
	maximum = 126
Slowest packet = 178
Flit latency average = 25.5202
	minimum = 6
	maximum = 64
Slowest flit = 4102
Fragmentation average = 45.6887
	minimum = 45
	maximum = 53
Injected packet rate average = 0.000964286
	minimum = 0.000285714 (at node 9)
	maximum = 0.002 (at node 50)
Accepted packet rate average = 0.000953125
	minimum = 0.000428571 (at node 14)
	maximum = 0.00171429 (at node 12)
Injected flit rate average = 0.0191496
	minimum = 0.00571429 (at node 9)
	maximum = 0.04 (at node 50)
Accepted flit rate average= 0.0190781
	minimum = 0.00857143 (at node 14)
	maximum = 0.0342857 (at node 34)
Injected packet length average = 19.8588
Accepted packet length average = 20.0164
Total in-flight flits = 125 (125 measured)
latency change    = 0.00109921
throughput change = 0.0146055
Draining all recorded packets ...
Draining remaining packets ...
Time taken is 10159 cycles
====== Overall Traffic Statistics ======
====== Traffic class 0 ======
Packet latency average = 93.3194 (1 samples)
	minimum = 70 (1 samples)
	maximum = 164 (1 samples)
Network latency average = 91.0648 (1 samples)
	minimum = 70 (1 samples)
	maximum = 126 (1 samples)
Flit latency average = 25.4082 (1 samples)
	minimum = 6 (1 samples)
	maximum = 64 (1 samples)
Fragmentation average = 45.6759 (1 samples)
	minimum = 45 (1 samples)
	maximum = 53 (1 samples)
Injected packet rate average = 0.000964286 (1 samples)
	minimum = 0.000285714 (1 samples)
	maximum = 0.002 (1 samples)
Accepted packet rate average = 0.000953125 (1 samples)
	minimum = 0.000428571 (1 samples)
	maximum = 0.00171429 (1 samples)
Injected flit rate average = 0.0191496 (1 samples)
	minimum = 0.00571429 (1 samples)
	maximum = 0.04 (1 samples)
Accepted flit rate average = 0.0190781 (1 samples)
	minimum = 0.00857143 (1 samples)
	maximum = 0.0342857 (1 samples)
Injected packet size average = 19.8588 (1 samples)
Accepted packet size average = 20.0164 (1 samples)
Hops average = 6.09259 (1 samples)
Total run time 1.37527
