BEGIN Configuration File: ../../IL2236_project/verify/figure7/162/mesh88_lat
// $Id$

// Copyright (c) 2007-2015, Trustees of The Leland Stanford Junior University
// All rights reserved.
//
// Redistribution and use in source and binary forms, with or without
// modification, are permitted provided that the following conditions are met:
//
// Redistributions of source code must retain the above copyright notice, this
// list of conditions and the following disclaimer.
// Redistributions in binary form must reproduce the above copyright notice,
// this list of conditions and the following disclaimer in the documentation
// and/or other materials provided with the distribution.
//
// THIS SOFTWARE IS PROVIDED BY THE COPYRIGHT HOLDERS AND CONTRIBUTORS "AS IS"
// AND ANY EXPRESS OR IMPLIED WARRANTIES, INCLUDING, BUT NOT LIMITED TO, THE
// IMPLIED WARRANTIES OF MERCHANTABILITY AND FITNESS FOR A PARTICULAR PURPOSE
// ARE DISCLAIMED. IN NO EVENT SHALL THE COPYRIGHT OWNER OR CONTRIBUTORS BE
// LIABLE FOR ANY DIRECT, INDIRECT, INCIDENTAL, SPECIAL, EXEMPLARY, OR
// CONSEQUENTIAL DAMAGES (INCLUDING, BUT NOT LIMITED TO, PROCUREMENT OF
// SUBSTITUTE GOODS OR SERVICES; LOSS OF USE, DATA, OR PROFITS; OR BUSINESS
// INTERRUPTION) HOWEVER CAUSED AND ON ANY THEORY OF LIABILITY, WHETHER IN
// CONTRACT, STRICT LIABILITY, OR TORT (INCLUDING NEGLIGENCE OR OTHERWISE)
// ARISING IN ANY WAY OUT OF THE USE OF THIS SOFTWARE, EVEN IF ADVISED OF THE
// POSSIBILITY OF SUCH DAMAGE.

//8X8 mesh with 20 flits per packet under injection mode
//injection rate here is packet per cycle, NOT flit per cycle

// Topology

topology = mesh;
k = 8;
n = 2;

// Routing
routing_function = dor;

// Flow control
num_vcs     = 16;
vc_buf_size = 2;
wait_for_tail_credit = 1;

// Router architecture
vc_allocator = islip;
sw_allocator = islip;
alloc_iters  = 1;

credit_delay   = 2;
routing_delay  = 0;
vc_alloc_delay = 1;
sw_alloc_delay = 1;

input_speedup     = 2;
output_speedup    = 1;
internal_speedup  = 1.0;


// Traffic
traffic = uniform;
packet_size = 20;


// Simulation
sim_type = latency;

injection_rate = .0025;


END Configuration File: ../../IL2236_project/verify/figure7/162/mesh88_lat
Class 0:
Packet latency average = 97.9929
	minimum = 70
	maximum = 160
Network latency average = 93.5929
	minimum = 70
	maximum = 123
Slowest packet = 14
Flit latency average = 27.0993
	minimum = 6
	maximum = 60
Slowest flit = 1962
Fragmentation average = 46.9786
	minimum = 45
	maximum = 55
Injected packet rate average = 0.00228125
	minimum = 0 (at node 1)
	maximum = 0.006 (at node 3)
Accepted packet rate average = 0.0021875
	minimum = 0 (at node 20)
	maximum = 0.007 (at node 18)
Injected flit rate average = 0.0447188
	minimum = 0 (at node 1)
	maximum = 0.12 (at node 33)
Accepted flit rate average= 0.0442188
	minimum = 0 (at node 20)
	maximum = 0.14 (at node 18)
Injected packet length average = 19.6027
Accepted packet length average = 20.2143
Total in-flight flits = 90 (0 measured)
latency change    = 1
throughput change = 1
Class 0:
Packet latency average = 98.422
	minimum = 70
	maximum = 235
Network latency average = 93.4113
	minimum = 70
	maximum = 123
Slowest packet = 14
Flit latency average = 26.7007
	minimum = 6
	maximum = 60
Slowest flit = 1962
Fragmentation average = 46.9468
	minimum = 45
	maximum = 55
Injected packet rate average = 0.0023125
	minimum = 0.0005 (at node 0)
	maximum = 0.0055 (at node 38)
Accepted packet rate average = 0.00220312
	minimum = 0 (at node 29)
	maximum = 0.0055 (at node 18)
Injected flit rate average = 0.0456094
	minimum = 0.01 (at node 0)
	maximum = 0.11 (at node 38)
Accepted flit rate average= 0.0449688
	minimum = 0 (at node 29)
	maximum = 0.11 (at node 18)
Injected packet length average = 19.723
Accepted packet length average = 20.4113
Total in-flight flits = 164 (0 measured)
latency change    = 0.00436009
throughput change = 0.0166782
Class 0:
Packet latency average = 103.285
	minimum = 74
	maximum = 227
Network latency average = 94.1582
	minimum = 74
	maximum = 118
Slowest packet = 284
Flit latency average = 27.929
	minimum = 10
	maximum = 56
Slowest flit = 7842
Fragmentation average = 46.8797
	minimum = 45
	maximum = 55
Injected packet rate average = 0.00254688
	minimum = 0 (at node 12)
	maximum = 0.006 (at node 8)
Accepted packet rate average = 0.00246875
	minimum = 0 (at node 11)
	maximum = 0.007 (at node 53)
Injected flit rate average = 0.0502344
	minimum = 0 (at node 12)
	maximum = 0.12 (at node 8)
Accepted flit rate average= 0.0495312
	minimum = 0 (at node 11)
	maximum = 0.14 (at node 53)
Injected packet length average = 19.7239
Accepted packet length average = 20.0633
Total in-flight flits = 254 (0 measured)
latency change    = 0.0470817
throughput change = 0.0921136
Warmed up ...Time used is 3000 cycles
Class 0:
Packet latency average = 104.397
	minimum = 70
	maximum = 264
Network latency average = 93.0927
	minimum = 70
	maximum = 126
Slowest packet = 459
Flit latency average = 27.1256
	minimum = 6
	maximum = 64
Slowest flit = 11262
Fragmentation average = 46.9404
	minimum = 45
	maximum = 55
Injected packet rate average = 0.00267188
	minimum = 0 (at node 20)
	maximum = 0.008 (at node 15)
Accepted packet rate average = 0.00265625
	minimum = 0 (at node 22)
	maximum = 0.007 (at node 13)
Injected flit rate average = 0.0532969
	minimum = 0 (at node 20)
	maximum = 0.175 (at node 15)
Accepted flit rate average= 0.05325
	minimum = 0 (at node 22)
	maximum = 0.14 (at node 17)
Injected packet length average = 19.9474
Accepted packet length average = 20.0471
Total in-flight flits = 266 (266 measured)
latency change    = 0.0106568
throughput change = 0.0698357
Class 0:
Packet latency average = 102.194
	minimum = 70
	maximum = 264
Network latency average = 92.6054
	minimum = 70
	maximum = 126
Slowest packet = 459
Flit latency average = 26.5146
	minimum = 6
	maximum = 64
Slowest flit = 11262
Fragmentation average = 46.7721
	minimum = 45
	maximum = 55
Injected packet rate average = 0.00239844
	minimum = 0.0005 (at node 7)
	maximum = 0.005 (at node 15)
Accepted packet rate average = 0.00244531
	minimum = 0 (at node 54)
	maximum = 0.005 (at node 6)
Injected flit rate average = 0.0483984
	minimum = 0.01 (at node 7)
	maximum = 0.1075 (at node 15)
Accepted flit rate average= 0.0488359
	minimum = 0.003 (at node 54)
	maximum = 0.1015 (at node 6)
Injected packet length average = 20.1792
Accepted packet length average = 19.9712
Total in-flight flits = 143 (143 measured)
latency change    = 0.0215617
throughput change = 0.0903855
Class 0:
Packet latency average = 101.853
	minimum = 70
	maximum = 308
Network latency average = 92.8527
	minimum = 70
	maximum = 126
Slowest packet = 459
Flit latency average = 26.5898
	minimum = 6
	maximum = 64
Slowest flit = 11262
Fragmentation average = 46.8482
	minimum = 45
	maximum = 57
Injected packet rate average = 0.00238021
	minimum = 0.000666667 (at node 2)
	maximum = 0.00466667 (at node 18)
Accepted packet rate average = 0.00243229
	minimum = 0.000666667 (at node 15)
	maximum = 0.005 (at node 37)
Injected flit rate average = 0.0479062
	minimum = 0.0133333 (at node 2)
	maximum = 0.0933333 (at node 18)
Accepted flit rate average= 0.0483177
	minimum = 0.00933333 (at node 46)
	maximum = 0.1 (at node 37)
Injected packet length average = 20.1269
Accepted packet length average = 19.8651
Total in-flight flits = 117 (117 measured)
latency change    = 0.00334993
throughput change = 0.0107255
Class 0:
Packet latency average = 101.787
	minimum = 70
	maximum = 308
Network latency average = 92.6885
	minimum = 70
	maximum = 126
Slowest packet = 459
Flit latency average = 26.4087
	minimum = 6
	maximum = 64
Slowest flit = 11262
Fragmentation average = 46.8098
	minimum = 45
	maximum = 57
Injected packet rate average = 0.00243359
	minimum = 0.001 (at node 41)
	maximum = 0.00375 (at node 38)
Accepted packet rate average = 0.00245703
	minimum = 0.0005 (at node 46)
	maximum = 0.00425 (at node 6)
Injected flit rate average = 0.0488281
	minimum = 0.02 (at node 41)
	maximum = 0.075 (at node 38)
Accepted flit rate average= 0.0490352
	minimum = 0.007 (at node 46)
	maximum = 0.08425 (at node 6)
Injected packet length average = 20.0642
Accepted packet length average = 19.9571
Total in-flight flits = 161 (161 measured)
latency change    = 0.000646383
throughput change = 0.0146313
Class 0:
Packet latency average = 102.831
	minimum = 70
	maximum = 308
Network latency average = 93.1855
	minimum = 70
	maximum = 126
Slowest packet = 459
Flit latency average = 26.7422
	minimum = 6
	maximum = 64
Slowest flit = 11262
Fragmentation average = 46.8898
	minimum = 45
	maximum = 65
Injected packet rate average = 0.00245625
	minimum = 0.0012 (at node 41)
	maximum = 0.0038 (at node 31)
Accepted packet rate average = 0.00246875
	minimum = 0.0008 (at node 46)
	maximum = 0.0042 (at node 20)
Injected flit rate average = 0.0491906
	minimum = 0.024 (at node 41)
	maximum = 0.0752 (at node 4)
Accepted flit rate average= 0.0492937
	minimum = 0.0136 (at node 46)
	maximum = 0.0838 (at node 20)
Injected packet length average = 20.0267
Accepted packet length average = 19.9671
Total in-flight flits = 200 (200 measured)
latency change    = 0.0101574
throughput change = 0.00524597
Draining all recorded packets ...
Draining remaining packets ...
Time taken is 8231 cycles
====== Overall Traffic Statistics ======
====== Traffic class 0 ======
Packet latency average = 102.909 (1 samples)
	minimum = 70 (1 samples)
	maximum = 308 (1 samples)
Network latency average = 93.2046 (1 samples)
	minimum = 70 (1 samples)
	maximum = 126 (1 samples)
Flit latency average = 26.7603 (1 samples)
	minimum = 6 (1 samples)
	maximum = 64 (1 samples)
Fragmentation average = 46.8907 (1 samples)
	minimum = 45 (1 samples)
	maximum = 65 (1 samples)
Injected packet rate average = 0.00245625 (1 samples)
	minimum = 0.0012 (1 samples)
	maximum = 0.0038 (1 samples)
Accepted packet rate average = 0.00246875 (1 samples)
	minimum = 0.0008 (1 samples)
	maximum = 0.0042 (1 samples)
Injected flit rate average = 0.0491906 (1 samples)
	minimum = 0.024 (1 samples)
	maximum = 0.0752 (1 samples)
Accepted flit rate average = 0.0492937 (1 samples)
	minimum = 0.0136 (1 samples)
	maximum = 0.0838 (1 samples)
Injected packet size average = 20.0267 (1 samples)
Accepted packet size average = 19.9671 (1 samples)
Hops average = 6.31639 (1 samples)
Total run time 1.91067
