BEGIN Configuration File: ../../IL2236_project/verify/figure7/162/mesh88_lat
// $Id$

// Copyright (c) 2007-2015, Trustees of The Leland Stanford Junior University
// All rights reserved.
//
// Redistribution and use in source and binary forms, with or without
// modification, are permitted provided that the following conditions are met:
//
// Redistributions of source code must retain the above copyright notice, this
// list of conditions and the following disclaimer.
// Redistributions in binary form must reproduce the above copyright notice,
// this list of conditions and the following disclaimer in the documentation
// and/or other materials provided with the distribution.
//
// THIS SOFTWARE IS PROVIDED BY THE COPYRIGHT HOLDERS AND CONTRIBUTORS "AS IS"
// AND ANY EXPRESS OR IMPLIED WARRANTIES, INCLUDING, BUT NOT LIMITED TO, THE
// IMPLIED WARRANTIES OF MERCHANTABILITY AND FITNESS FOR A PARTICULAR PURPOSE
// ARE DISCLAIMED. IN NO EVENT SHALL THE COPYRIGHT OWNER OR CONTRIBUTORS BE
// LIABLE FOR ANY DIRECT, INDIRECT, INCIDENTAL, SPECIAL, EXEMPLARY, OR
// CONSEQUENTIAL DAMAGES (INCLUDING, BUT NOT LIMITED TO, PROCUREMENT OF
// SUBSTITUTE GOODS OR SERVICES; LOSS OF USE, DATA, OR PROFITS; OR BUSINESS
// INTERRUPTION) HOWEVER CAUSED AND ON ANY THEORY OF LIABILITY, WHETHER IN
// CONTRACT, STRICT LIABILITY, OR TORT (INCLUDING NEGLIGENCE OR OTHERWISE)
// ARISING IN ANY WAY OUT OF THE USE OF THIS SOFTWARE, EVEN IF ADVISED OF THE
// POSSIBILITY OF SUCH DAMAGE.

//8X8 mesh with 20 flits per packet under injection mode
//injection rate here is packet per cycle, NOT flit per cycle

// Topology

topology = mesh;
k = 8;
n = 2;

// Routing
routing_function = dor;

// Flow control
num_vcs     = 16;
vc_buf_size = 2;
wait_for_tail_credit = 1;

// Router architecture
vc_allocator = islip;
sw_allocator = islip;
alloc_iters  = 1;

credit_delay   = 2;
routing_delay  = 0;
vc_alloc_delay = 1;
sw_alloc_delay = 1;

input_speedup     = 2;
output_speedup    = 1;
internal_speedup  = 1.0;


// Traffic
traffic = uniform;
packet_size = 20;


// Simulation
sim_type = latency;

injection_rate = .0155;


END Configuration File: ../../IL2236_project/verify/figure7/162/mesh88_lat
Class 0:
Packet latency average = 210.62
	minimum = 70
	maximum = 543
Network latency average = 103.697
	minimum = 70
	maximum = 180
Slowest packet = 5
Flit latency average = 29.5503
	minimum = 6
	maximum = 114
Slowest flit = 2585
Fragmentation average = 56.9438
	minimum = 45
	maximum = 111
Injected packet rate average = 0.011875
	minimum = 0.007 (at node 11)
	maximum = 0.014 (at node 13)
Accepted packet rate average = 0.0105625
	minimum = 0.005 (at node 11)
	maximum = 0.018 (at node 12)
Injected flit rate average = 0.228359
	minimum = 0.135 (at node 11)
	maximum = 0.273 (at node 16)
Accepted flit rate average= 0.220578
	minimum = 0.1 (at node 54)
	maximum = 0.383 (at node 12)
Injected packet length average = 19.2303
Accepted packet length average = 20.8831
Total in-flight flits = 1083 (0 measured)
latency change    = 1
throughput change = 1
Class 0:
Packet latency average = 314.926
	minimum = 70
	maximum = 968
Network latency average = 105.44
	minimum = 70
	maximum = 262
Slowest packet = 5
Flit latency average = 30.1941
	minimum = 6
	maximum = 165
Slowest flit = 18719
Fragmentation average = 58.7551
	minimum = 45
	maximum = 226
Injected packet rate average = 0.0122656
	minimum = 0.0085 (at node 32)
	maximum = 0.014 (at node 16)
Accepted packet rate average = 0.0115781
	minimum = 0.008 (at node 29)
	maximum = 0.018 (at node 27)
Injected flit rate average = 0.240563
	minimum = 0.168 (at node 32)
	maximum = 0.2745 (at node 34)
Accepted flit rate average= 0.236195
	minimum = 0.16 (at node 29)
	maximum = 0.361 (at node 27)
Injected packet length average = 19.6127
Accepted packet length average = 20.4001
Total in-flight flits = 1167 (0 measured)
latency change    = 0.331208
throughput change = 0.0661198
Class 0:
Packet latency average = 604.862
	minimum = 74
	maximum = 1371
Network latency average = 107.343
	minimum = 70
	maximum = 256
Slowest packet = 1507
Flit latency average = 30.9467
	minimum = 6
	maximum = 151
Slowest flit = 29417
Fragmentation average = 60.1882
	minimum = 45
	maximum = 195
Injected packet rate average = 0.012875
	minimum = 0.009 (at node 36)
	maximum = 0.014 (at node 4)
Accepted packet rate average = 0.0129531
	minimum = 0.005 (at node 52)
	maximum = 0.023 (at node 47)
Injected flit rate average = 0.257594
	minimum = 0.175 (at node 36)
	maximum = 0.282 (at node 42)
Accepted flit rate average= 0.258156
	minimum = 0.105 (at node 52)
	maximum = 0.464 (at node 47)
Injected packet length average = 20.0073
Accepted packet length average = 19.93
Total in-flight flits = 1125 (0 measured)
latency change    = 0.479343
throughput change = 0.0850684
Average latency for class 0 exceeded 500 cycles. Aborting simulation.
Too many sample periods needed to converge
Simulation unstable, ending ...
Total run time 1.81275
