BEGIN Configuration File: ../../IL2236_project/verify/figure7/162/mesh88_lat
// $Id$

// Copyright (c) 2007-2015, Trustees of The Leland Stanford Junior University
// All rights reserved.
//
// Redistribution and use in source and binary forms, with or without
// modification, are permitted provided that the following conditions are met:
//
// Redistributions of source code must retain the above copyright notice, this
// list of conditions and the following disclaimer.
// Redistributions in binary form must reproduce the above copyright notice,
// this list of conditions and the following disclaimer in the documentation
// and/or other materials provided with the distribution.
//
// THIS SOFTWARE IS PROVIDED BY THE COPYRIGHT HOLDERS AND CONTRIBUTORS "AS IS"
// AND ANY EXPRESS OR IMPLIED WARRANTIES, INCLUDING, BUT NOT LIMITED TO, THE
// IMPLIED WARRANTIES OF MERCHANTABILITY AND FITNESS FOR A PARTICULAR PURPOSE
// ARE DISCLAIMED. IN NO EVENT SHALL THE COPYRIGHT OWNER OR CONTRIBUTORS BE
// LIABLE FOR ANY DIRECT, INDIRECT, INCIDENTAL, SPECIAL, EXEMPLARY, OR
// CONSEQUENTIAL DAMAGES (INCLUDING, BUT NOT LIMITED TO, PROCUREMENT OF
// SUBSTITUTE GOODS OR SERVICES; LOSS OF USE, DATA, OR PROFITS; OR BUSINESS
// INTERRUPTION) HOWEVER CAUSED AND ON ANY THEORY OF LIABILITY, WHETHER IN
// CONTRACT, STRICT LIABILITY, OR TORT (INCLUDING NEGLIGENCE OR OTHERWISE)
// ARISING IN ANY WAY OUT OF THE USE OF THIS SOFTWARE, EVEN IF ADVISED OF THE
// POSSIBILITY OF SUCH DAMAGE.

//8X8 mesh with 20 flits per packet under injection mode
//injection rate here is packet per cycle, NOT flit per cycle

// Topology

topology = mesh;
k = 8;
n = 2;

// Routing
routing_function = dor;

// Flow control
num_vcs     = 16;
vc_buf_size = 2;
wait_for_tail_credit = 1;

// Router architecture
vc_allocator = islip;
sw_allocator = islip;
alloc_iters  = 1;

credit_delay   = 2;
routing_delay  = 0;
vc_alloc_delay = 1;
sw_alloc_delay = 1;

input_speedup     = 2;
output_speedup    = 1;
internal_speedup  = 1.0;


// Traffic
traffic = uniform;
packet_size = 20;


// Simulation
sim_type = latency;

injection_rate = .0200;


END Configuration File: ../../IL2236_project/verify/figure7/162/mesh88_lat
Class 0:
Packet latency average = 256.261
	minimum = 71
	maximum = 629
Network latency average = 103.073
	minimum = 70
	maximum = 195
Slowest packet = 45
Flit latency average = 29.2001
	minimum = 6
	maximum = 118
Slowest flit = 914
Fragmentation average = 56.7723
	minimum = 45
	maximum = 142
Injected packet rate average = 0.01275
	minimum = 0.008 (at node 6)
	maximum = 0.014 (at node 7)
Accepted packet rate average = 0.0113906
	minimum = 0.005 (at node 54)
	maximum = 0.02 (at node 12)
Injected flit rate average = 0.245562
	minimum = 0.152 (at node 6)
	maximum = 0.278 (at node 18)
Accepted flit rate average= 0.2375
	minimum = 0.109 (at node 54)
	maximum = 0.4 (at node 12)
Injected packet length average = 19.2598
Accepted packet length average = 20.8505
Total in-flight flits = 1120 (0 measured)
latency change    = 1
throughput change = 1
Class 0:
Packet latency average = 440.38
	minimum = 71
	maximum = 1340
Network latency average = 105.709
	minimum = 70
	maximum = 276
Slowest packet = 45
Flit latency average = 30.1144
	minimum = 6
	maximum = 155
Slowest flit = 22614
Fragmentation average = 58.9485
	minimum = 45
	maximum = 219
Injected packet rate average = 0.0127891
	minimum = 0.0105 (at node 6)
	maximum = 0.014 (at node 18)
Accepted packet rate average = 0.0121328
	minimum = 0.008 (at node 29)
	maximum = 0.0185 (at node 27)
Injected flit rate average = 0.251625
	minimum = 0.201 (at node 6)
	maximum = 0.273 (at node 18)
Accepted flit rate average= 0.247844
	minimum = 0.16 (at node 29)
	maximum = 0.377 (at node 27)
Injected packet length average = 19.675
Accepted packet length average = 20.4276
Total in-flight flits = 1016 (0 measured)
latency change    = 0.418092
throughput change = 0.041735
Average latency for class 0 exceeded 500 cycles. Aborting simulation.
Too many sample periods needed to converge
Simulation unstable, ending ...
Total run time 1.20743
