BEGIN Configuration File: ../../IL2236_project/verify/figure1/ROMM/mesh88_lat
// $Id$

// Copyright (c) 2007-2015, Trustees of The Leland Stanford Junior University
// All rights reserved.
//
// Redistribution and use in source and binary forms, with or without
// modification, are permitted provided that the following conditions are met:
//
// Redistributions of source code must retain the above copyright notice, this
// list of conditions and the following disclaimer.
// Redistributions in binary form must reproduce the above copyright notice,
// this list of conditions and the following disclaimer in the documentation
// and/or other materials provided with the distribution.
//
// THIS SOFTWARE IS PROVIDED BY THE COPYRIGHT HOLDERS AND CONTRIBUTORS "AS IS"
// AND ANY EXPRESS OR IMPLIED WARRANTIES, INCLUDING, BUT NOT LIMITED TO, THE
// IMPLIED WARRANTIES OF MERCHANTABILITY AND FITNESS FOR A PARTICULAR PURPOSE
// ARE DISCLAIMED. IN NO EVENT SHALL THE COPYRIGHT OWNER OR CONTRIBUTORS BE
// LIABLE FOR ANY DIRECT, INDIRECT, INCIDENTAL, SPECIAL, EXEMPLARY, OR
// CONSEQUENTIAL DAMAGES (INCLUDING, BUT NOT LIMITED TO, PROCUREMENT OF
// SUBSTITUTE GOODS OR SERVICES; LOSS OF USE, DATA, OR PROFITS; OR BUSINESS
// INTERRUPTION) HOWEVER CAUSED AND ON ANY THEORY OF LIABILITY, WHETHER IN
// CONTRACT, STRICT LIABILITY, OR TORT (INCLUDING NEGLIGENCE OR OTHERWISE)
// ARISING IN ANY WAY OUT OF THE USE OF THIS SOFTWARE, EVEN IF ADVISED OF THE
// POSSIBILITY OF SUCH DAMAGE.

//8X8 mesh with 20 flits per packet under injection mode
//injection rate here is packet per cycle, NOT flit per cycle

// Topology

topology = mesh;
k = 8;
n = 2;

// Routing
routing_function = romm;

// Flow control
num_vcs     = 8;
vc_buf_size = 8;
wait_for_tail_credit = 1;

// Router architecture
vc_allocator = islip;
sw_allocator = islip;
alloc_iters  = 1;

credit_delay   = 2;
routing_delay  = 0;
vc_alloc_delay = 1;
sw_alloc_delay = 1;

input_speedup     = 2;
output_speedup    = 1;
internal_speedup  = 1.0;


// Traffic
traffic = uniform;
packet_size = 20;


// Simulation
sim_type = latency;

injection_rate = .0095;


END Configuration File: ../../IL2236_project/verify/figure1/ROMM/mesh88_lat
Class 0:
Packet latency average = 69.1655
	minimum = 25
	maximum = 169
Network latency average = 66.4418
	minimum = 25
	maximum = 164
Slowest packet = 41
Flit latency average = 36.2176
	minimum = 6
	maximum = 145
Slowest flit = 6359
Fragmentation average = 20.58
	minimum = 0
	maximum = 111
Injected packet rate average = 0.00909375
	minimum = 0.003 (at node 27)
	maximum = 0.016 (at node 32)
Accepted packet rate average = 0.00859375
	minimum = 0.001 (at node 54)
	maximum = 0.016 (at node 39)
Injected flit rate average = 0.180297
	minimum = 0.06 (at node 27)
	maximum = 0.32 (at node 32)
Accepted flit rate average= 0.174094
	minimum = 0.021 (at node 54)
	maximum = 0.32 (at node 39)
Injected packet length average = 19.8265
Accepted packet length average = 20.2582
Total in-flight flits = 498 (0 measured)
latency change    = 1
throughput change = 1
Class 0:
Packet latency average = 70.0168
	minimum = 25
	maximum = 172
Network latency average = 67.2599
	minimum = 25
	maximum = 168
Slowest packet = 41
Flit latency average = 36.7115
	minimum = 6
	maximum = 148
Slowest flit = 13919
Fragmentation average = 21.1034
	minimum = 0
	maximum = 115
Injected packet rate average = 0.00920312
	minimum = 0.003 (at node 5)
	maximum = 0.014 (at node 32)
Accepted packet rate average = 0.00883594
	minimum = 0.0035 (at node 54)
	maximum = 0.014 (at node 39)
Injected flit rate average = 0.182875
	minimum = 0.06 (at node 5)
	maximum = 0.28 (at node 32)
Accepted flit rate average= 0.179156
	minimum = 0.0725 (at node 54)
	maximum = 0.28 (at node 39)
Injected packet length average = 19.871
Accepted packet length average = 20.2759
Total in-flight flits = 628 (0 measured)
latency change    = 0.0121591
throughput change = 0.0282575
Class 0:
Packet latency average = 76.8094
	minimum = 25
	maximum = 195
Network latency average = 73.5
	minimum = 25
	maximum = 170
Slowest packet = 1203
Flit latency average = 40.3017
	minimum = 6
	maximum = 148
Slowest flit = 24079
Fragmentation average = 25.8984
	minimum = 0
	maximum = 113
Injected packet rate average = 0.00989063
	minimum = 0.003 (at node 18)
	maximum = 0.019 (at node 50)
Accepted packet rate average = 0.01
	minimum = 0.004 (at node 1)
	maximum = 0.018 (at node 22)
Injected flit rate average = 0.198125
	minimum = 0.06 (at node 18)
	maximum = 0.381 (at node 50)
Accepted flit rate average= 0.197859
	minimum = 0.094 (at node 1)
	maximum = 0.36 (at node 22)
Injected packet length average = 20.0316
Accepted packet length average = 19.7859
Total in-flight flits = 625 (0 measured)
latency change    = 0.0884342
throughput change = 0.0945274
Warmed up ...Time used is 3000 cycles
Class 0:
Packet latency average = 69.6608
	minimum = 25
	maximum = 166
Network latency average = 66.8594
	minimum = 25
	maximum = 166
Slowest packet = 2178
Flit latency average = 36.5735
	minimum = 6
	maximum = 147
Slowest flit = 43579
Fragmentation average = 21.2654
	minimum = 0
	maximum = 105
Injected packet rate average = 0.0095625
	minimum = 0.005 (at node 6)
	maximum = 0.015 (at node 9)
Accepted packet rate average = 0.00951562
	minimum = 0.003 (at node 0)
	maximum = 0.019 (at node 51)
Injected flit rate average = 0.191047
	minimum = 0.082 (at node 6)
	maximum = 0.3 (at node 9)
Accepted flit rate average= 0.190672
	minimum = 0.06 (at node 0)
	maximum = 0.377 (at node 51)
Injected packet length average = 19.9788
Accepted packet length average = 20.0378
Total in-flight flits = 662 (662 measured)
latency change    = 0.10262
throughput change = 0.0376956
Class 0:
Packet latency average = 70.2284
	minimum = 25
	maximum = 208
Network latency average = 67.526
	minimum = 25
	maximum = 192
Slowest packet = 2341
Flit latency average = 36.8086
	minimum = 6
	maximum = 171
Slowest flit = 46879
Fragmentation average = 21.3443
	minimum = 0
	maximum = 141
Injected packet rate average = 0.00928125
	minimum = 0.0045 (at node 10)
	maximum = 0.015 (at node 43)
Accepted packet rate average = 0.00934375
	minimum = 0.005 (at node 18)
	maximum = 0.0165 (at node 14)
Injected flit rate average = 0.185633
	minimum = 0.09 (at node 10)
	maximum = 0.2965 (at node 43)
Accepted flit rate average= 0.186828
	minimum = 0.1015 (at node 31)
	maximum = 0.322 (at node 14)
Injected packet length average = 20.0008
Accepted packet length average = 19.995
Total in-flight flits = 471 (471 measured)
latency change    = 0.00808171
throughput change = 0.0205737
Class 0:
Packet latency average = 71.737
	minimum = 25
	maximum = 240
Network latency average = 68.5944
	minimum = 25
	maximum = 233
Slowest packet = 3226
Flit latency average = 37.4096
	minimum = 6
	maximum = 214
Slowest flit = 64539
Fragmentation average = 22.1605
	minimum = 0
	maximum = 180
Injected packet rate average = 0.00915625
	minimum = 0.004 (at node 32)
	maximum = 0.014 (at node 25)
Accepted packet rate average = 0.00919792
	minimum = 0.00666667 (at node 60)
	maximum = 0.0136667 (at node 55)
Injected flit rate average = 0.183078
	minimum = 0.08 (at node 32)
	maximum = 0.28 (at node 25)
Accepted flit rate average= 0.183703
	minimum = 0.133333 (at node 60)
	maximum = 0.272 (at node 55)
Injected packet length average = 19.9949
Accepted packet length average = 19.9723
Total in-flight flits = 514 (514 measured)
latency change    = 0.0210295
throughput change = 0.0170111
Class 0:
Packet latency average = 73.4564
	minimum = 25
	maximum = 262
Network latency average = 70.2853
	minimum = 25
	maximum = 245
Slowest packet = 3678
Flit latency average = 38.3727
	minimum = 6
	maximum = 226
Slowest flit = 73578
Fragmentation average = 23.5019
	minimum = 0
	maximum = 184
Injected packet rate average = 0.00925391
	minimum = 0.0045 (at node 10)
	maximum = 0.013 (at node 59)
Accepted packet rate average = 0.00924609
	minimum = 0.0065 (at node 40)
	maximum = 0.01275 (at node 55)
Injected flit rate average = 0.185012
	minimum = 0.08975 (at node 10)
	maximum = 0.26125 (at node 59)
Accepted flit rate average= 0.185141
	minimum = 0.13 (at node 40)
	maximum = 0.2565 (at node 55)
Injected packet length average = 19.9928
Accepted packet length average = 20.0237
Total in-flight flits = 609 (609 measured)
latency change    = 0.0234073
throughput change = 0.00776437
Draining all recorded packets ...
Draining remaining packets ...
Time taken is 7222 cycles
====== Overall Traffic Statistics ======
====== Traffic class 0 ======
Packet latency average = 73.8688 (1 samples)
	minimum = 25 (1 samples)
	maximum = 262 (1 samples)
Network latency average = 70.6689 (1 samples)
	minimum = 25 (1 samples)
	maximum = 245 (1 samples)
Flit latency average = 38.6531 (1 samples)
	minimum = 6 (1 samples)
	maximum = 226 (1 samples)
Fragmentation average = 23.7874 (1 samples)
	minimum = 0 (1 samples)
	maximum = 184 (1 samples)
Injected packet rate average = 0.00925391 (1 samples)
	minimum = 0.0045 (1 samples)
	maximum = 0.013 (1 samples)
Accepted packet rate average = 0.00924609 (1 samples)
	minimum = 0.0065 (1 samples)
	maximum = 0.01275 (1 samples)
Injected flit rate average = 0.185012 (1 samples)
	minimum = 0.08975 (1 samples)
	maximum = 0.26125 (1 samples)
Accepted flit rate average = 0.185141 (1 samples)
	minimum = 0.13 (1 samples)
	maximum = 0.2565 (1 samples)
Injected packet size average = 19.9928 (1 samples)
Accepted packet size average = 20.0237 (1 samples)
Hops average = 6.15943 (1 samples)
Total run time 3.10535
