BEGIN Configuration File: ../../IL2236_project/verify/figure1/ROMM/mesh88_lat
// $Id$

// Copyright (c) 2007-2015, Trustees of The Leland Stanford Junior University
// All rights reserved.
//
// Redistribution and use in source and binary forms, with or without
// modification, are permitted provided that the following conditions are met:
//
// Redistributions of source code must retain the above copyright notice, this
// list of conditions and the following disclaimer.
// Redistributions in binary form must reproduce the above copyright notice,
// this list of conditions and the following disclaimer in the documentation
// and/or other materials provided with the distribution.
//
// THIS SOFTWARE IS PROVIDED BY THE COPYRIGHT HOLDERS AND CONTRIBUTORS "AS IS"
// AND ANY EXPRESS OR IMPLIED WARRANTIES, INCLUDING, BUT NOT LIMITED TO, THE
// IMPLIED WARRANTIES OF MERCHANTABILITY AND FITNESS FOR A PARTICULAR PURPOSE
// ARE DISCLAIMED. IN NO EVENT SHALL THE COPYRIGHT OWNER OR CONTRIBUTORS BE
// LIABLE FOR ANY DIRECT, INDIRECT, INCIDENTAL, SPECIAL, EXEMPLARY, OR
// CONSEQUENTIAL DAMAGES (INCLUDING, BUT NOT LIMITED TO, PROCUREMENT OF
// SUBSTITUTE GOODS OR SERVICES; LOSS OF USE, DATA, OR PROFITS; OR BUSINESS
// INTERRUPTION) HOWEVER CAUSED AND ON ANY THEORY OF LIABILITY, WHETHER IN
// CONTRACT, STRICT LIABILITY, OR TORT (INCLUDING NEGLIGENCE OR OTHERWISE)
// ARISING IN ANY WAY OUT OF THE USE OF THIS SOFTWARE, EVEN IF ADVISED OF THE
// POSSIBILITY OF SUCH DAMAGE.

//8X8 mesh with 20 flits per packet under injection mode
//injection rate here is packet per cycle, NOT flit per cycle

// Topology

topology = mesh;
k = 8;
n = 2;

// Routing
routing_function = romm;

// Flow control
num_vcs     = 8;
vc_buf_size = 8;
wait_for_tail_credit = 1;

// Router architecture
vc_allocator = islip;
sw_allocator = islip;
alloc_iters  = 1;

credit_delay   = 2;
routing_delay  = 0;
vc_alloc_delay = 1;
sw_alloc_delay = 1;

input_speedup     = 2;
output_speedup    = 1;
internal_speedup  = 1.0;


// Traffic
traffic = uniform;
packet_size = 20;


// Simulation
sim_type = latency;

injection_rate = .010;


END Configuration File: ../../IL2236_project/verify/figure1/ROMM/mesh88_lat
Class 0:
Packet latency average = 73.1944
	minimum = 25
	maximum = 267
Network latency average = 69.8932
	minimum = 25
	maximum = 254
Slowest packet = 84
Flit latency average = 38.3534
	minimum = 6
	maximum = 225
Slowest flit = 1699
Fragmentation average = 22.5254
	minimum = 0
	maximum = 141
Injected packet rate average = 0.0095625
	minimum = 0.003 (at node 6)
	maximum = 0.018 (at node 29)
Accepted packet rate average = 0.00892187
	minimum = 0.002 (at node 54)
	maximum = 0.015 (at node 60)
Injected flit rate average = 0.189594
	minimum = 0.06 (at node 6)
	maximum = 0.356 (at node 29)
Accepted flit rate average= 0.181734
	minimum = 0.04 (at node 54)
	maximum = 0.3 (at node 60)
Injected packet length average = 19.8268
Accepted packet length average = 20.3695
Total in-flight flits = 609 (0 measured)
latency change    = 1
throughput change = 1
Class 0:
Packet latency average = 75.0051
	minimum = 25
	maximum = 267
Network latency average = 71.511
	minimum = 25
	maximum = 254
Slowest packet = 84
Flit latency average = 39.3312
	minimum = 6
	maximum = 225
Slowest flit = 1699
Fragmentation average = 24.0093
	minimum = 0
	maximum = 141
Injected packet rate average = 0.00975
	minimum = 0.0045 (at node 35)
	maximum = 0.0145 (at node 29)
Accepted packet rate average = 0.00926562
	minimum = 0.0055 (at node 21)
	maximum = 0.0135 (at node 49)
Injected flit rate average = 0.193617
	minimum = 0.09 (at node 35)
	maximum = 0.283 (at node 29)
Accepted flit rate average= 0.188805
	minimum = 0.11 (at node 21)
	maximum = 0.27 (at node 49)
Injected packet length average = 19.8582
Accepted packet length average = 20.3769
Total in-flight flits = 793 (0 measured)
latency change    = 0.0241405
throughput change = 0.0374478
Class 0:
Packet latency average = 82.6433
	minimum = 25
	maximum = 217
Network latency average = 77.4612
	minimum = 25
	maximum = 217
Slowest packet = 1234
Flit latency average = 42.3439
	minimum = 6
	maximum = 192
Slowest flit = 24699
Fragmentation average = 29.4522
	minimum = 0
	maximum = 152
Injected packet rate average = 0.0103594
	minimum = 0.004 (at node 44)
	maximum = 0.019 (at node 4)
Accepted packet rate average = 0.0104688
	minimum = 0.005 (at node 13)
	maximum = 0.021 (at node 22)
Injected flit rate average = 0.207719
	minimum = 0.08 (at node 44)
	maximum = 0.385 (at node 4)
Accepted flit rate average= 0.208016
	minimum = 0.111 (at node 13)
	maximum = 0.405 (at node 22)
Injected packet length average = 20.0513
Accepted packet length average = 19.8701
Total in-flight flits = 740 (0 measured)
latency change    = 0.092424
throughput change = 0.0923533
Warmed up ...Time used is 3000 cycles
Class 0:
Packet latency average = 78.2633
	minimum = 25
	maximum = 192
Network latency average = 74.1583
	minimum = 25
	maximum = 188
Slowest packet = 2149
Flit latency average = 41.1914
	minimum = 6
	maximum = 200
Slowest flit = 36459
Fragmentation average = 26.59
	minimum = 0
	maximum = 131
Injected packet rate average = 0.0100313
	minimum = 0.003 (at node 30)
	maximum = 0.021 (at node 60)
Accepted packet rate average = 0.0102344
	minimum = 0.005 (at node 57)
	maximum = 0.019 (at node 51)
Injected flit rate average = 0.200469
	minimum = 0.06 (at node 30)
	maximum = 0.42 (at node 60)
Accepted flit rate average= 0.202391
	minimum = 0.089 (at node 57)
	maximum = 0.329 (at node 51)
Injected packet length average = 19.9844
Accepted packet length average = 19.7756
Total in-flight flits = 627 (627 measured)
latency change    = 0.0559643
throughput change = 0.0277928
Class 0:
Packet latency average = 75.4556
	minimum = 25
	maximum = 192
Network latency average = 71.8639
	minimum = 25
	maximum = 188
Slowest packet = 2149
Flit latency average = 39.7966
	minimum = 6
	maximum = 200
Slowest flit = 36459
Fragmentation average = 24.7469
	minimum = 0
	maximum = 144
Injected packet rate average = 0.00975781
	minimum = 0.0045 (at node 30)
	maximum = 0.015 (at node 57)
Accepted packet rate average = 0.00984375
	minimum = 0.0065 (at node 10)
	maximum = 0.017 (at node 55)
Injected flit rate average = 0.195211
	minimum = 0.09 (at node 30)
	maximum = 0.2975 (at node 57)
Accepted flit rate average= 0.196297
	minimum = 0.128 (at node 10)
	maximum = 0.3335 (at node 55)
Injected packet length average = 20.0056
Accepted packet length average = 19.9413
Total in-flight flits = 594 (594 measured)
latency change    = 0.0372104
throughput change = 0.0310435
Class 0:
Packet latency average = 74.3238
	minimum = 25
	maximum = 192
Network latency average = 70.6993
	minimum = 25
	maximum = 188
Slowest packet = 2149
Flit latency average = 38.8803
	minimum = 6
	maximum = 200
Slowest flit = 36459
Fragmentation average = 23.8829
	minimum = 0
	maximum = 144
Injected packet rate average = 0.00971354
	minimum = 0.00533333 (at node 2)
	maximum = 0.0143333 (at node 43)
Accepted packet rate average = 0.00976042
	minimum = 0.00633333 (at node 30)
	maximum = 0.0156667 (at node 55)
Injected flit rate average = 0.194005
	minimum = 0.106667 (at node 2)
	maximum = 0.283333 (at node 43)
Accepted flit rate average= 0.194688
	minimum = 0.122667 (at node 41)
	maximum = 0.317 (at node 55)
Injected packet length average = 19.9727
Accepted packet length average = 19.9466
Total in-flight flits = 660 (660 measured)
latency change    = 0.0152279
throughput change = 0.00826645
Class 0:
Packet latency average = 76.1786
	minimum = 25
	maximum = 279
Network latency average = 72.4032
	minimum = 25
	maximum = 259
Slowest packet = 4100
Flit latency average = 39.7062
	minimum = 6
	maximum = 208
Slowest flit = 83019
Fragmentation average = 25.2842
	minimum = 0
	maximum = 158
Injected packet rate average = 0.00979688
	minimum = 0.00625 (at node 2)
	maximum = 0.014 (at node 43)
Accepted packet rate average = 0.00983594
	minimum = 0.00675 (at node 21)
	maximum = 0.014 (at node 55)
Injected flit rate average = 0.195914
	minimum = 0.125 (at node 2)
	maximum = 0.277 (at node 43)
Accepted flit rate average= 0.196371
	minimum = 0.135 (at node 21)
	maximum = 0.275 (at node 23)
Injected packet length average = 19.9976
Accepted packet length average = 19.9647
Total in-flight flits = 629 (629 measured)
latency change    = 0.0243486
throughput change = 0.00857353
Draining all recorded packets ...
Draining remaining packets ...
Time taken is 7232 cycles
====== Overall Traffic Statistics ======
====== Traffic class 0 ======
Packet latency average = 76.2984 (1 samples)
	minimum = 25 (1 samples)
	maximum = 279 (1 samples)
Network latency average = 72.498 (1 samples)
	minimum = 25 (1 samples)
	maximum = 259 (1 samples)
Flit latency average = 39.8737 (1 samples)
	minimum = 6 (1 samples)
	maximum = 208 (1 samples)
Fragmentation average = 25.3092 (1 samples)
	minimum = 0 (1 samples)
	maximum = 158 (1 samples)
Injected packet rate average = 0.00979688 (1 samples)
	minimum = 0.00625 (1 samples)
	maximum = 0.014 (1 samples)
Accepted packet rate average = 0.00983594 (1 samples)
	minimum = 0.00675 (1 samples)
	maximum = 0.014 (1 samples)
Injected flit rate average = 0.195914 (1 samples)
	minimum = 0.125 (1 samples)
	maximum = 0.277 (1 samples)
Accepted flit rate average = 0.196371 (1 samples)
	minimum = 0.135 (1 samples)
	maximum = 0.275 (1 samples)
Injected packet size average = 19.9976 (1 samples)
Accepted packet size average = 19.9647 (1 samples)
Hops average = 6.26215 (1 samples)
Total run time 3.33215
