BEGIN Configuration File: ../../IL2236_project/verify/figure1/ROMM/mesh88_lat
// $Id$

// Copyright (c) 2007-2015, Trustees of The Leland Stanford Junior University
// All rights reserved.
//
// Redistribution and use in source and binary forms, with or without
// modification, are permitted provided that the following conditions are met:
//
// Redistributions of source code must retain the above copyright notice, this
// list of conditions and the following disclaimer.
// Redistributions in binary form must reproduce the above copyright notice,
// this list of conditions and the following disclaimer in the documentation
// and/or other materials provided with the distribution.
//
// THIS SOFTWARE IS PROVIDED BY THE COPYRIGHT HOLDERS AND CONTRIBUTORS "AS IS"
// AND ANY EXPRESS OR IMPLIED WARRANTIES, INCLUDING, BUT NOT LIMITED TO, THE
// IMPLIED WARRANTIES OF MERCHANTABILITY AND FITNESS FOR A PARTICULAR PURPOSE
// ARE DISCLAIMED. IN NO EVENT SHALL THE COPYRIGHT OWNER OR CONTRIBUTORS BE
// LIABLE FOR ANY DIRECT, INDIRECT, INCIDENTAL, SPECIAL, EXEMPLARY, OR
// CONSEQUENTIAL DAMAGES (INCLUDING, BUT NOT LIMITED TO, PROCUREMENT OF
// SUBSTITUTE GOODS OR SERVICES; LOSS OF USE, DATA, OR PROFITS; OR BUSINESS
// INTERRUPTION) HOWEVER CAUSED AND ON ANY THEORY OF LIABILITY, WHETHER IN
// CONTRACT, STRICT LIABILITY, OR TORT (INCLUDING NEGLIGENCE OR OTHERWISE)
// ARISING IN ANY WAY OUT OF THE USE OF THIS SOFTWARE, EVEN IF ADVISED OF THE
// POSSIBILITY OF SUCH DAMAGE.

//8X8 mesh with 20 flits per packet under injection mode
//injection rate here is packet per cycle, NOT flit per cycle

// Topology

topology = mesh;
k = 8;
n = 2;

// Routing
routing_function = romm;

// Flow control
num_vcs     = 8;
vc_buf_size = 8;
wait_for_tail_credit = 1;

// Router architecture
vc_allocator = islip;
sw_allocator = islip;
alloc_iters  = 1;

credit_delay   = 2;
routing_delay  = 0;
vc_alloc_delay = 1;
sw_alloc_delay = 1;

input_speedup     = 2;
output_speedup    = 1;
internal_speedup  = 1.0;


// Traffic
traffic = uniform;
packet_size = 20;


// Simulation
sim_type = latency;

injection_rate = .0115;


END Configuration File: ../../IL2236_project/verify/figure1/ROMM/mesh88_lat
Class 0:
Packet latency average = 82.8757
	minimum = 25
	maximum = 281
Network latency average = 77.6362
	minimum = 25
	maximum = 251
Slowest packet = 82
Flit latency average = 42.0852
	minimum = 6
	maximum = 223
Slowest flit = 1659
Fragmentation average = 29.6527
	minimum = 0
	maximum = 166
Injected packet rate average = 0.0110937
	minimum = 0.005 (at node 49)
	maximum = 0.02 (at node 1)
Accepted packet rate average = 0.0104375
	minimum = 0.004 (at node 0)
	maximum = 0.02 (at node 60)
Injected flit rate average = 0.219641
	minimum = 0.1 (at node 49)
	maximum = 0.4 (at node 24)
Accepted flit rate average= 0.212125
	minimum = 0.08 (at node 0)
	maximum = 0.4 (at node 60)
Injected packet length average = 19.7986
Accepted packet length average = 20.3234
Total in-flight flits = 624 (0 measured)
latency change    = 1
throughput change = 1
Class 0:
Packet latency average = 80.8394
	minimum = 25
	maximum = 281
Network latency average = 75.5821
	minimum = 25
	maximum = 251
Slowest packet = 82
Flit latency average = 41.0611
	minimum = 6
	maximum = 223
Slowest flit = 1659
Fragmentation average = 28.1221
	minimum = 0
	maximum = 166
Injected packet rate average = 0.0112734
	minimum = 0.0055 (at node 11)
	maximum = 0.019 (at node 1)
Accepted packet rate average = 0.01075
	minimum = 0.005 (at node 52)
	maximum = 0.016 (at node 49)
Injected flit rate average = 0.223828
	minimum = 0.11 (at node 11)
	maximum = 0.38 (at node 1)
Accepted flit rate average= 0.218453
	minimum = 0.1 (at node 52)
	maximum = 0.3295 (at node 49)
Injected packet length average = 19.8545
Accepted packet length average = 20.3212
Total in-flight flits = 898 (0 measured)
latency change    = 0.0251902
throughput change = 0.0289679
Class 0:
Packet latency average = 94.8146
	minimum = 25
	maximum = 350
Network latency average = 88.5854
	minimum = 25
	maximum = 350
Slowest packet = 1548
Flit latency average = 48.83
	minimum = 6
	maximum = 331
Slowest flit = 30979
Fragmentation average = 37.5192
	minimum = 0
	maximum = 170
Injected packet rate average = 0.0117813
	minimum = 0.004 (at node 49)
	maximum = 0.019 (at node 4)
Accepted packet rate average = 0.0117969
	minimum = 0.006 (at node 18)
	maximum = 0.021 (at node 51)
Injected flit rate average = 0.235813
	minimum = 0.089 (at node 49)
	maximum = 0.387 (at node 17)
Accepted flit rate average= 0.234937
	minimum = 0.106 (at node 42)
	maximum = 0.42 (at node 51)
Injected packet length average = 20.0159
Accepted packet length average = 19.9152
Total in-flight flits = 942 (0 measured)
latency change    = 0.147395
throughput change = 0.0701649
Warmed up ...Time used is 3000 cycles
Class 0:
Packet latency average = 87.9496
	minimum = 25
	maximum = 290
Network latency average = 81.8163
	minimum = 25
	maximum = 277
Slowest packet = 2396
Flit latency average = 44.726
	minimum = 6
	maximum = 228
Slowest flit = 47939
Fragmentation average = 33.1748
	minimum = 0
	maximum = 196
Injected packet rate average = 0.011375
	minimum = 0.006 (at node 1)
	maximum = 0.02 (at node 35)
Accepted packet rate average = 0.0115781
	minimum = 0.004 (at node 57)
	maximum = 0.022 (at node 49)
Injected flit rate average = 0.227906
	minimum = 0.12 (at node 1)
	maximum = 0.4 (at node 35)
Accepted flit rate average= 0.229984
	minimum = 0.08 (at node 57)
	maximum = 0.44 (at node 49)
Injected packet length average = 20.0357
Accepted packet length average = 19.8637
Total in-flight flits = 783 (783 measured)
latency change    = 0.0780554
throughput change = 0.0215368
Class 0:
Packet latency average = 85.7131
	minimum = 25
	maximum = 290
Network latency average = 80.1435
	minimum = 25
	maximum = 277
Slowest packet = 2396
Flit latency average = 43.9008
	minimum = 6
	maximum = 233
Slowest flit = 64979
Fragmentation average = 31.4921
	minimum = 0
	maximum = 196
Injected packet rate average = 0.0112109
	minimum = 0.007 (at node 29)
	maximum = 0.016 (at node 27)
Accepted packet rate average = 0.0114062
	minimum = 0.0055 (at node 57)
	maximum = 0.017 (at node 55)
Injected flit rate average = 0.224602
	minimum = 0.146 (at node 29)
	maximum = 0.32 (at node 27)
Accepted flit rate average= 0.227133
	minimum = 0.11 (at node 57)
	maximum = 0.333 (at node 55)
Injected packet length average = 20.0341
Accepted packet length average = 19.913
Total in-flight flits = 569 (569 measured)
latency change    = 0.0260937
throughput change = 0.0125546
Class 0:
Packet latency average = 85.267
	minimum = 25
	maximum = 334
Network latency average = 79.633
	minimum = 25
	maximum = 310
Slowest packet = 3811
Flit latency average = 43.6332
	minimum = 6
	maximum = 258
Slowest flit = 76235
Fragmentation average = 31.099
	minimum = 0
	maximum = 217
Injected packet rate average = 0.0111146
	minimum = 0.00666667 (at node 53)
	maximum = 0.0163333 (at node 0)
Accepted packet rate average = 0.0112292
	minimum = 0.00733333 (at node 10)
	maximum = 0.0153333 (at node 34)
Injected flit rate average = 0.222109
	minimum = 0.135667 (at node 53)
	maximum = 0.326667 (at node 0)
Accepted flit rate average= 0.223443
	minimum = 0.146667 (at node 57)
	maximum = 0.297667 (at node 34)
Injected packet length average = 19.9836
Accepted packet length average = 19.8984
Total in-flight flits = 721 (721 measured)
latency change    = 0.00523145
throughput change = 0.0165148
Class 0:
Packet latency average = 85.6549
	minimum = 25
	maximum = 334
Network latency average = 79.7405
	minimum = 25
	maximum = 310
Slowest packet = 3811
Flit latency average = 43.5291
	minimum = 6
	maximum = 258
Slowest flit = 76235
Fragmentation average = 31.4486
	minimum = 0
	maximum = 217
Injected packet rate average = 0.0111953
	minimum = 0.0085 (at node 8)
	maximum = 0.01525 (at node 0)
Accepted packet rate average = 0.0112031
	minimum = 0.0065 (at node 57)
	maximum = 0.01425 (at node 31)
Injected flit rate average = 0.223977
	minimum = 0.17 (at node 8)
	maximum = 0.305 (at node 0)
Accepted flit rate average= 0.224141
	minimum = 0.131 (at node 57)
	maximum = 0.28475 (at node 38)
Injected packet length average = 20.0063
Accepted packet length average = 20.007
Total in-flight flits = 882 (882 measured)
latency change    = 0.00452868
throughput change = 0.00311374
Draining all recorded packets ...
Draining remaining packets ...
Time taken is 7250 cycles
====== Overall Traffic Statistics ======
====== Traffic class 0 ======
Packet latency average = 86.0216 (1 samples)
	minimum = 25 (1 samples)
	maximum = 334 (1 samples)
Network latency average = 80.0017 (1 samples)
	minimum = 25 (1 samples)
	maximum = 310 (1 samples)
Flit latency average = 43.6688 (1 samples)
	minimum = 6 (1 samples)
	maximum = 258 (1 samples)
Fragmentation average = 31.629 (1 samples)
	minimum = 0 (1 samples)
	maximum = 217 (1 samples)
Injected packet rate average = 0.0111953 (1 samples)
	minimum = 0.0085 (1 samples)
	maximum = 0.01525 (1 samples)
Accepted packet rate average = 0.0112031 (1 samples)
	minimum = 0.0065 (1 samples)
	maximum = 0.01425 (1 samples)
Injected flit rate average = 0.223977 (1 samples)
	minimum = 0.17 (1 samples)
	maximum = 0.305 (1 samples)
Accepted flit rate average = 0.224141 (1 samples)
	minimum = 0.131 (1 samples)
	maximum = 0.28475 (1 samples)
Injected packet size average = 20.0063 (1 samples)
Accepted packet size average = 20.007 (1 samples)
Hops average = 6.2889 (1 samples)
Total run time 3.6846
