BEGIN Configuration File: ../../IL2236_project/verify/figure1/ROMM/mesh88_lat
// $Id$

// Copyright (c) 2007-2015, Trustees of The Leland Stanford Junior University
// All rights reserved.
//
// Redistribution and use in source and binary forms, with or without
// modification, are permitted provided that the following conditions are met:
//
// Redistributions of source code must retain the above copyright notice, this
// list of conditions and the following disclaimer.
// Redistributions in binary form must reproduce the above copyright notice,
// this list of conditions and the following disclaimer in the documentation
// and/or other materials provided with the distribution.
//
// THIS SOFTWARE IS PROVIDED BY THE COPYRIGHT HOLDERS AND CONTRIBUTORS "AS IS"
// AND ANY EXPRESS OR IMPLIED WARRANTIES, INCLUDING, BUT NOT LIMITED TO, THE
// IMPLIED WARRANTIES OF MERCHANTABILITY AND FITNESS FOR A PARTICULAR PURPOSE
// ARE DISCLAIMED. IN NO EVENT SHALL THE COPYRIGHT OWNER OR CONTRIBUTORS BE
// LIABLE FOR ANY DIRECT, INDIRECT, INCIDENTAL, SPECIAL, EXEMPLARY, OR
// CONSEQUENTIAL DAMAGES (INCLUDING, BUT NOT LIMITED TO, PROCUREMENT OF
// SUBSTITUTE GOODS OR SERVICES; LOSS OF USE, DATA, OR PROFITS; OR BUSINESS
// INTERRUPTION) HOWEVER CAUSED AND ON ANY THEORY OF LIABILITY, WHETHER IN
// CONTRACT, STRICT LIABILITY, OR TORT (INCLUDING NEGLIGENCE OR OTHERWISE)
// ARISING IN ANY WAY OUT OF THE USE OF THIS SOFTWARE, EVEN IF ADVISED OF THE
// POSSIBILITY OF SUCH DAMAGE.

//8X8 mesh with 20 flits per packet under injection mode
//injection rate here is packet per cycle, NOT flit per cycle

// Topology

topology = mesh;
k = 8;
n = 2;

// Routing
routing_function = romm;

// Flow control
num_vcs     = 8;
vc_buf_size = 8;
wait_for_tail_credit = 1;

// Router architecture
vc_allocator = islip;
sw_allocator = islip;
alloc_iters  = 1;

credit_delay   = 2;
routing_delay  = 0;
vc_alloc_delay = 1;
sw_alloc_delay = 1;

input_speedup     = 2;
output_speedup    = 1;
internal_speedup  = 1.0;


// Traffic
traffic = uniform;
packet_size = 20;


// Simulation
sim_type = latency;

injection_rate = .0190;


END Configuration File: ../../IL2236_project/verify/figure1/ROMM/mesh88_lat
Class 0:
Packet latency average = 141.408
	minimum = 25
	maximum = 506
Network latency average = 114.01
	minimum = 25
	maximum = 367
Slowest packet = 120
Flit latency average = 63.289
	minimum = 6
	maximum = 333
Slowest flit = 12879
Fragmentation average = 57.7928
	minimum = 0
	maximum = 213
Injected packet rate average = 0.0180781
	minimum = 0.01 (at node 18)
	maximum = 0.028 (at node 5)
Accepted packet rate average = 0.0156875
	minimum = 0.008 (at node 53)
	maximum = 0.03 (at node 39)
Injected flit rate average = 0.357406
	minimum = 0.185 (at node 41)
	maximum = 0.555 (at node 5)
Accepted flit rate average= 0.328609
	minimum = 0.177 (at node 53)
	maximum = 0.6 (at node 39)
Injected packet length average = 19.7701
Accepted packet length average = 20.9472
Total in-flight flits = 2109 (0 measured)
latency change    = 1
throughput change = 1
Class 0:
Packet latency average = 183.393
	minimum = 25
	maximum = 1051
Network latency average = 129.631
	minimum = 25
	maximum = 711
Slowest packet = 878
Flit latency average = 75.5896
	minimum = 6
	maximum = 692
Slowest flit = 23259
Fragmentation average = 60.9986
	minimum = 0
	maximum = 226
Injected packet rate average = 0.0179219
	minimum = 0.011 (at node 42)
	maximum = 0.027 (at node 2)
Accepted packet rate average = 0.0166328
	minimum = 0.0115 (at node 12)
	maximum = 0.0255 (at node 39)
Injected flit rate average = 0.356078
	minimum = 0.22 (at node 42)
	maximum = 0.5385 (at node 2)
Accepted flit rate average= 0.3405
	minimum = 0.239 (at node 12)
	maximum = 0.5165 (at node 39)
Injected packet length average = 19.8684
Accepted packet length average = 20.4716
Total in-flight flits = 2296 (0 measured)
latency change    = 0.228931
throughput change = 0.0349211
Class 0:
Packet latency average = 263.549
	minimum = 25
	maximum = 1566
Network latency average = 147.152
	minimum = 25
	maximum = 699
Slowest packet = 2115
Flit latency average = 92.0254
	minimum = 6
	maximum = 920
Slowest flit = 47477
Fragmentation average = 62.3248
	minimum = 0
	maximum = 290
Injected packet rate average = 0.0183594
	minimum = 0.009 (at node 45)
	maximum = 0.027 (at node 15)
Accepted packet rate average = 0.018375
	minimum = 0.011 (at node 56)
	maximum = 0.027 (at node 14)
Injected flit rate average = 0.366281
	minimum = 0.188 (at node 45)
	maximum = 0.534 (at node 33)
Accepted flit rate average= 0.36575
	minimum = 0.222 (at node 61)
	maximum = 0.512 (at node 14)
Injected packet length average = 19.9506
Accepted packet length average = 19.9048
Total in-flight flits = 2388 (0 measured)
latency change    = 0.304143
throughput change = 0.0690362
Warmed up ...Time used is 3000 cycles
Class 0:
Packet latency average = 324.619
	minimum = 25
	maximum = 1752
Network latency average = 140.811
	minimum = 25
	maximum = 709
Slowest packet = 3474
Flit latency average = 92.2999
	minimum = 6
	maximum = 923
Slowest flit = 47479
Fragmentation average = 62.1916
	minimum = 0
	maximum = 277
Injected packet rate average = 0.0179531
	minimum = 0.009 (at node 50)
	maximum = 0.028 (at node 15)
Accepted packet rate average = 0.0178906
	minimum = 0.007 (at node 21)
	maximum = 0.027 (at node 28)
Injected flit rate average = 0.358094
	minimum = 0.176 (at node 50)
	maximum = 0.568 (at node 15)
Accepted flit rate average= 0.358703
	minimum = 0.176 (at node 21)
	maximum = 0.547 (at node 28)
Injected packet length average = 19.946
Accepted packet length average = 20.0498
Total in-flight flits = 2411 (2411 measured)
latency change    = 0.188127
throughput change = 0.0196454
Class 0:
Packet latency average = 340.844
	minimum = 25
	maximum = 2097
Network latency average = 145.265
	minimum = 25
	maximum = 873
Slowest packet = 3474
Flit latency average = 91.788
	minimum = 6
	maximum = 923
Slowest flit = 47479
Fragmentation average = 63.4265
	minimum = 0
	maximum = 277
Injected packet rate average = 0.0178281
	minimum = 0.01 (at node 59)
	maximum = 0.027 (at node 32)
Accepted packet rate average = 0.0177656
	minimum = 0.012 (at node 7)
	maximum = 0.025 (at node 19)
Injected flit rate average = 0.356453
	minimum = 0.198 (at node 59)
	maximum = 0.5405 (at node 32)
Accepted flit rate average= 0.355148
	minimum = 0.2395 (at node 22)
	maximum = 0.509 (at node 19)
Injected packet length average = 19.9939
Accepted packet length average = 19.9908
Total in-flight flits = 2569 (2569 measured)
latency change    = 0.047602
throughput change = 0.010009
Class 0:
Packet latency average = 363.584
	minimum = 25
	maximum = 2476
Network latency average = 150.625
	minimum = 25
	maximum = 977
Slowest packet = 3474
Flit latency average = 95.4601
	minimum = 6
	maximum = 951
Slowest flit = 102839
Fragmentation average = 63.877
	minimum = 0
	maximum = 277
Injected packet rate average = 0.0178802
	minimum = 0.0106667 (at node 59)
	maximum = 0.0266667 (at node 32)
Accepted packet rate average = 0.0177917
	minimum = 0.0123333 (at node 4)
	maximum = 0.0243333 (at node 0)
Injected flit rate average = 0.357521
	minimum = 0.208 (at node 59)
	maximum = 0.538333 (at node 32)
Accepted flit rate average= 0.356557
	minimum = 0.253333 (at node 7)
	maximum = 0.473333 (at node 0)
Injected packet length average = 19.9953
Accepted packet length average = 20.0407
Total in-flight flits = 2589 (2589 measured)
latency change    = 0.0625458
throughput change = 0.00395127
Class 0:
Packet latency average = 389.722
	minimum = 25
	maximum = 2476
Network latency average = 152.808
	minimum = 25
	maximum = 1059
Slowest packet = 3474
Flit latency average = 96.2279
	minimum = 6
	maximum = 961
Slowest flit = 126534
Fragmentation average = 64.4259
	minimum = 0
	maximum = 277
Injected packet rate average = 0.0177773
	minimum = 0.01 (at node 59)
	maximum = 0.028 (at node 32)
Accepted packet rate average = 0.0177539
	minimum = 0.01325 (at node 7)
	maximum = 0.025 (at node 0)
Injected flit rate average = 0.355645
	minimum = 0.199 (at node 59)
	maximum = 0.563 (at node 32)
Accepted flit rate average= 0.355227
	minimum = 0.269 (at node 7)
	maximum = 0.4885 (at node 0)
Injected packet length average = 20.0055
Accepted packet length average = 20.0084
Total in-flight flits = 2470 (2470 measured)
latency change    = 0.0670671
throughput change = 0.00374614
Class 0:
Packet latency average = 413.232
	minimum = 25
	maximum = 2476
Network latency average = 153.41
	minimum = 25
	maximum = 1059
Slowest packet = 3474
Flit latency average = 96.2621
	minimum = 6
	maximum = 961
Slowest flit = 126534
Fragmentation average = 64.9354
	minimum = 0
	maximum = 277
Injected packet rate average = 0.0178781
	minimum = 0.0122 (at node 59)
	maximum = 0.028 (at node 32)
Accepted packet rate average = 0.0178813
	minimum = 0.0136 (at node 7)
	maximum = 0.024 (at node 0)
Injected flit rate average = 0.357372
	minimum = 0.2432 (at node 59)
	maximum = 0.5638 (at node 32)
Accepted flit rate average= 0.357572
	minimum = 0.2746 (at node 7)
	maximum = 0.4674 (at node 0)
Injected packet length average = 19.9893
Accepted packet length average = 19.997
Total in-flight flits = 2385 (2385 measured)
latency change    = 0.0568942
throughput change = 0.006559
Class 0:
Packet latency average = 441.553
	minimum = 25
	maximum = 2999
Network latency average = 153.049
	minimum = 25
	maximum = 1059
Slowest packet = 3474
Flit latency average = 96.3279
	minimum = 6
	maximum = 961
Slowest flit = 126534
Fragmentation average = 64.3051
	minimum = 0
	maximum = 277
Injected packet rate average = 0.0178932
	minimum = 0.0125 (at node 19)
	maximum = 0.026 (at node 32)
Accepted packet rate average = 0.017875
	minimum = 0.014 (at node 7)
	maximum = 0.0221667 (at node 0)
Injected flit rate average = 0.357831
	minimum = 0.248667 (at node 19)
	maximum = 0.523167 (at node 32)
Accepted flit rate average= 0.35781
	minimum = 0.281667 (at node 7)
	maximum = 0.432833 (at node 0)
Injected packet length average = 19.9981
Accepted packet length average = 20.0173
Total in-flight flits = 2409 (2409 measured)
latency change    = 0.0641395
throughput change = 0.000665216
Class 0:
Packet latency average = 461.48
	minimum = 25
	maximum = 3226
Network latency average = 154.372
	minimum = 25
	maximum = 1059
Slowest packet = 3474
Flit latency average = 96.963
	minimum = 6
	maximum = 961
Slowest flit = 126534
Fragmentation average = 64.55
	minimum = 0
	maximum = 293
Injected packet rate average = 0.0179754
	minimum = 0.0124286 (at node 59)
	maximum = 0.0244286 (at node 32)
Accepted packet rate average = 0.0179152
	minimum = 0.0148571 (at node 7)
	maximum = 0.0218571 (at node 50)
Injected flit rate average = 0.359388
	minimum = 0.248 (at node 59)
	maximum = 0.491 (at node 32)
Accepted flit rate average= 0.358471
	minimum = 0.299 (at node 7)
	maximum = 0.431 (at node 50)
Injected packet length average = 19.9933
Accepted packet length average = 20.0093
Total in-flight flits = 2853 (2853 measured)
latency change    = 0.0431801
throughput change = 0.00184418
Draining all recorded packets ...
Average latency for class 0 exceeded 500 cycles. Aborting simulation.
Simulation unstable, ending ...
Total run time 9.44689
