BEGIN Configuration File: ../../IL2236_project/verify/figure1/ROMM/mesh88_lat
// $Id$

// Copyright (c) 2007-2015, Trustees of The Leland Stanford Junior University
// All rights reserved.
//
// Redistribution and use in source and binary forms, with or without
// modification, are permitted provided that the following conditions are met:
//
// Redistributions of source code must retain the above copyright notice, this
// list of conditions and the following disclaimer.
// Redistributions in binary form must reproduce the above copyright notice,
// this list of conditions and the following disclaimer in the documentation
// and/or other materials provided with the distribution.
//
// THIS SOFTWARE IS PROVIDED BY THE COPYRIGHT HOLDERS AND CONTRIBUTORS "AS IS"
// AND ANY EXPRESS OR IMPLIED WARRANTIES, INCLUDING, BUT NOT LIMITED TO, THE
// IMPLIED WARRANTIES OF MERCHANTABILITY AND FITNESS FOR A PARTICULAR PURPOSE
// ARE DISCLAIMED. IN NO EVENT SHALL THE COPYRIGHT OWNER OR CONTRIBUTORS BE
// LIABLE FOR ANY DIRECT, INDIRECT, INCIDENTAL, SPECIAL, EXEMPLARY, OR
// CONSEQUENTIAL DAMAGES (INCLUDING, BUT NOT LIMITED TO, PROCUREMENT OF
// SUBSTITUTE GOODS OR SERVICES; LOSS OF USE, DATA, OR PROFITS; OR BUSINESS
// INTERRUPTION) HOWEVER CAUSED AND ON ANY THEORY OF LIABILITY, WHETHER IN
// CONTRACT, STRICT LIABILITY, OR TORT (INCLUDING NEGLIGENCE OR OTHERWISE)
// ARISING IN ANY WAY OUT OF THE USE OF THIS SOFTWARE, EVEN IF ADVISED OF THE
// POSSIBILITY OF SUCH DAMAGE.

//8X8 mesh with 20 flits per packet under injection mode
//injection rate here is packet per cycle, NOT flit per cycle

// Topology

topology = mesh;
k = 8;
n = 2;

// Routing
routing_function = romm;

// Flow control
num_vcs     = 8;
vc_buf_size = 8;
wait_for_tail_credit = 1;

// Router architecture
vc_allocator = islip;
sw_allocator = islip;
alloc_iters  = 1;

credit_delay   = 2;
routing_delay  = 0;
vc_alloc_delay = 1;
sw_alloc_delay = 1;

input_speedup     = 2;
output_speedup    = 1;
internal_speedup  = 1.0;


// Traffic
traffic = uniform;
packet_size = 20;


// Simulation
sim_type = latency;

injection_rate = .0245;


END Configuration File: ../../IL2236_project/verify/figure1/ROMM/mesh88_lat
Class 0:
Packet latency average = 192.698
	minimum = 27
	maximum = 769
Network latency average = 136.703
	minimum = 25
	maximum = 587
Slowest packet = 174
Flit latency average = 82.1873
	minimum = 6
	maximum = 518
Slowest flit = 6535
Fragmentation average = 63.4892
	minimum = 0
	maximum = 224
Injected packet rate average = 0.0203438
	minimum = 0.011 (at node 45)
	maximum = 0.032 (at node 56)
Accepted packet rate average = 0.0167031
	minimum = 0.007 (at node 29)
	maximum = 0.025 (at node 49)
Injected flit rate average = 0.399719
	minimum = 0.212 (at node 45)
	maximum = 0.64 (at node 56)
Accepted flit rate average= 0.35325
	minimum = 0.151 (at node 29)
	maximum = 0.501 (at node 49)
Injected packet length average = 19.6482
Accepted packet length average = 21.1487
Total in-flight flits = 3432 (0 measured)
latency change    = 1
throughput change = 1
Class 0:
Packet latency average = 305.823
	minimum = 27
	maximum = 1214
Network latency average = 156.415
	minimum = 25
	maximum = 709
Slowest packet = 174
Flit latency average = 97.5514
	minimum = 6
	maximum = 865
Slowest flit = 29089
Fragmentation average = 65.7918
	minimum = 0
	maximum = 259
Injected packet rate average = 0.0194453
	minimum = 0.012 (at node 50)
	maximum = 0.0305 (at node 56)
Accepted packet rate average = 0.0177891
	minimum = 0.0125 (at node 30)
	maximum = 0.024 (at node 55)
Injected flit rate average = 0.385398
	minimum = 0.234 (at node 50)
	maximum = 0.609 (at node 56)
Accepted flit rate average= 0.364023
	minimum = 0.253 (at node 30)
	maximum = 0.486 (at node 50)
Injected packet length average = 19.8196
Accepted packet length average = 20.4633
Total in-flight flits = 3185 (0 measured)
latency change    = 0.369903
throughput change = 0.0295955
Class 0:
Packet latency average = 629.931
	minimum = 33
	maximum = 1758
Network latency average = 182.485
	minimum = 25
	maximum = 929
Slowest packet = 2274
Flit latency average = 120.06
	minimum = 6
	maximum = 910
Slowest flit = 38939
Fragmentation average = 68.3325
	minimum = 0
	maximum = 310
Injected packet rate average = 0.01875
	minimum = 0.01 (at node 27)
	maximum = 0.03 (at node 15)
Accepted packet rate average = 0.0188437
	minimum = 0.011 (at node 4)
	maximum = 0.028 (at node 43)
Injected flit rate average = 0.374937
	minimum = 0.207 (at node 20)
	maximum = 0.604 (at node 55)
Accepted flit rate average= 0.375141
	minimum = 0.213 (at node 4)
	maximum = 0.573 (at node 43)
Injected packet length average = 19.9967
Accepted packet length average = 19.908
Total in-flight flits = 3176 (0 measured)
latency change    = 0.514514
throughput change = 0.0296347
Average latency for class 0 exceeded 500 cycles. Aborting simulation.
Too many sample periods needed to converge
Simulation unstable, ending ...
Total run time 2.68497
