BEGIN Configuration File: ../../IL2236_project/verify/figure1/ROMM/mesh88_lat
// $Id$

// Copyright (c) 2007-2015, Trustees of The Leland Stanford Junior University
// All rights reserved.
//
// Redistribution and use in source and binary forms, with or without
// modification, are permitted provided that the following conditions are met:
//
// Redistributions of source code must retain the above copyright notice, this
// list of conditions and the following disclaimer.
// Redistributions in binary form must reproduce the above copyright notice,
// this list of conditions and the following disclaimer in the documentation
// and/or other materials provided with the distribution.
//
// THIS SOFTWARE IS PROVIDED BY THE COPYRIGHT HOLDERS AND CONTRIBUTORS "AS IS"
// AND ANY EXPRESS OR IMPLIED WARRANTIES, INCLUDING, BUT NOT LIMITED TO, THE
// IMPLIED WARRANTIES OF MERCHANTABILITY AND FITNESS FOR A PARTICULAR PURPOSE
// ARE DISCLAIMED. IN NO EVENT SHALL THE COPYRIGHT OWNER OR CONTRIBUTORS BE
// LIABLE FOR ANY DIRECT, INDIRECT, INCIDENTAL, SPECIAL, EXEMPLARY, OR
// CONSEQUENTIAL DAMAGES (INCLUDING, BUT NOT LIMITED TO, PROCUREMENT OF
// SUBSTITUTE GOODS OR SERVICES; LOSS OF USE, DATA, OR PROFITS; OR BUSINESS
// INTERRUPTION) HOWEVER CAUSED AND ON ANY THEORY OF LIABILITY, WHETHER IN
// CONTRACT, STRICT LIABILITY, OR TORT (INCLUDING NEGLIGENCE OR OTHERWISE)
// ARISING IN ANY WAY OUT OF THE USE OF THIS SOFTWARE, EVEN IF ADVISED OF THE
// POSSIBILITY OF SUCH DAMAGE.

//8X8 mesh with 20 flits per packet under injection mode
//injection rate here is packet per cycle, NOT flit per cycle

// Topology

topology = mesh;
k = 8;
n = 2;

// Routing
routing_function = romm;

// Flow control
num_vcs     = 8;
vc_buf_size = 8;
wait_for_tail_credit = 1;

// Router architecture
vc_allocator = islip;
sw_allocator = islip;
alloc_iters  = 1;

credit_delay   = 2;
routing_delay  = 0;
vc_alloc_delay = 1;
sw_alloc_delay = 1;

input_speedup     = 2;
output_speedup    = 1;
internal_speedup  = 1.0;


// Traffic
traffic = uniform;
packet_size = 20;


// Simulation
sim_type = latency;

injection_rate = .034;


END Configuration File: ../../IL2236_project/verify/figure1/ROMM/mesh88_lat
Class 0:
Packet latency average = 256.441
	minimum = 25
	maximum = 907
Network latency average = 152.021
	minimum = 25
	maximum = 767
Slowest packet = 139
Flit latency average = 93.1268
	minimum = 6
	maximum = 681
Slowest flit = 2795
Fragmentation average = 70.6972
	minimum = 0
	maximum = 234
Injected packet rate average = 0.0209219
	minimum = 0.01 (at node 4)
	maximum = 0.034 (at node 63)
Accepted packet rate average = 0.0175937
	minimum = 0.009 (at node 17)
	maximum = 0.028 (at node 38)
Injected flit rate average = 0.411344
	minimum = 0.188 (at node 4)
	maximum = 0.67 (at node 63)
Accepted flit rate average= 0.36775
	minimum = 0.18 (at node 17)
	maximum = 0.563 (at node 38)
Injected packet length average = 19.6609
Accepted packet length average = 20.9023
Total in-flight flits = 3244 (0 measured)
latency change    = 1
throughput change = 1
Class 0:
Packet latency average = 455.294
	minimum = 25
	maximum = 1511
Network latency average = 169.627
	minimum = 25
	maximum = 1216
Slowest packet = 139
Flit latency average = 106.665
	minimum = 6
	maximum = 1155
Slowest flit = 17035
Fragmentation average = 71.3278
	minimum = 0
	maximum = 300
Injected packet rate average = 0.0202734
	minimum = 0.0105 (at node 4)
	maximum = 0.034 (at node 63)
Accepted packet rate average = 0.0183516
	minimum = 0.012 (at node 17)
	maximum = 0.0235 (at node 38)
Injected flit rate average = 0.401789
	minimum = 0.204 (at node 4)
	maximum = 0.6775 (at node 63)
Accepted flit rate average= 0.376422
	minimum = 0.2555 (at node 17)
	maximum = 0.484 (at node 49)
Injected packet length average = 19.8185
Accepted packet length average = 20.5117
Total in-flight flits = 3718 (0 measured)
latency change    = 0.436756
throughput change = 0.0230376
Average latency for class 0 exceeded 500 cycles. Aborting simulation.
Too many sample periods needed to converge
Simulation unstable, ending ...
Total run time 1.83756
