BEGIN Configuration File: ../../IL2236_project/verify/figure1/ROMM/mesh88_lat
// $Id$

// Copyright (c) 2007-2015, Trustees of The Leland Stanford Junior University
// All rights reserved.
//
// Redistribution and use in source and binary forms, with or without
// modification, are permitted provided that the following conditions are met:
//
// Redistributions of source code must retain the above copyright notice, this
// list of conditions and the following disclaimer.
// Redistributions in binary form must reproduce the above copyright notice,
// this list of conditions and the following disclaimer in the documentation
// and/or other materials provided with the distribution.
//
// THIS SOFTWARE IS PROVIDED BY THE COPYRIGHT HOLDERS AND CONTRIBUTORS "AS IS"
// AND ANY EXPRESS OR IMPLIED WARRANTIES, INCLUDING, BUT NOT LIMITED TO, THE
// IMPLIED WARRANTIES OF MERCHANTABILITY AND FITNESS FOR A PARTICULAR PURPOSE
// ARE DISCLAIMED. IN NO EVENT SHALL THE COPYRIGHT OWNER OR CONTRIBUTORS BE
// LIABLE FOR ANY DIRECT, INDIRECT, INCIDENTAL, SPECIAL, EXEMPLARY, OR
// CONSEQUENTIAL DAMAGES (INCLUDING, BUT NOT LIMITED TO, PROCUREMENT OF
// SUBSTITUTE GOODS OR SERVICES; LOSS OF USE, DATA, OR PROFITS; OR BUSINESS
// INTERRUPTION) HOWEVER CAUSED AND ON ANY THEORY OF LIABILITY, WHETHER IN
// CONTRACT, STRICT LIABILITY, OR TORT (INCLUDING NEGLIGENCE OR OTHERWISE)
// ARISING IN ANY WAY OUT OF THE USE OF THIS SOFTWARE, EVEN IF ADVISED OF THE
// POSSIBILITY OF SUCH DAMAGE.

//8X8 mesh with 20 flits per packet under injection mode
//injection rate here is packet per cycle, NOT flit per cycle

// Topology

topology = mesh;
k = 8;
n = 2;

// Routing
routing_function = romm;

// Flow control
num_vcs     = 8;
vc_buf_size = 8;
wait_for_tail_credit = 1;

// Router architecture
vc_allocator = islip;
sw_allocator = islip;
alloc_iters  = 1;

credit_delay   = 2;
routing_delay  = 0;
vc_alloc_delay = 1;
sw_alloc_delay = 1;

input_speedup     = 2;
output_speedup    = 1;
internal_speedup  = 1.0;


// Traffic
traffic = uniform;
packet_size = 20;


// Simulation
sim_type = latency;

injection_rate = .0350;


END Configuration File: ../../IL2236_project/verify/figure1/ROMM/mesh88_lat
Class 0:
Packet latency average = 269.363
	minimum = 27
	maximum = 792
Network latency average = 156.564
	minimum = 25
	maximum = 626
Slowest packet = 128
Flit latency average = 95.5592
	minimum = 6
	maximum = 594
Slowest flit = 11079
Fragmentation average = 71.1146
	minimum = 0
	maximum = 244
Injected packet rate average = 0.0217969
	minimum = 0.011 (at node 41)
	maximum = 0.037 (at node 63)
Accepted packet rate average = 0.0181406
	minimum = 0.009 (at node 22)
	maximum = 0.027 (at node 1)
Injected flit rate average = 0.426547
	minimum = 0.215 (at node 41)
	maximum = 0.73 (at node 63)
Accepted flit rate average= 0.378984
	minimum = 0.196 (at node 22)
	maximum = 0.558 (at node 1)
Injected packet length average = 19.5692
Accepted packet length average = 20.8915
Total in-flight flits = 3645 (0 measured)
latency change    = 1
throughput change = 1
Class 0:
Packet latency average = 468.275
	minimum = 27
	maximum = 1417
Network latency average = 167.702
	minimum = 25
	maximum = 1061
Slowest packet = 128
Flit latency average = 105.553
	minimum = 6
	maximum = 1042
Slowest flit = 20279
Fragmentation average = 71.0793
	minimum = 0
	maximum = 279
Injected packet rate average = 0.0203594
	minimum = 0.011 (at node 11)
	maximum = 0.032 (at node 15)
Accepted packet rate average = 0.0187187
	minimum = 0.013 (at node 57)
	maximum = 0.029 (at node 49)
Injected flit rate average = 0.402773
	minimum = 0.2115 (at node 11)
	maximum = 0.638 (at node 15)
Accepted flit rate average= 0.382383
	minimum = 0.26 (at node 57)
	maximum = 0.593 (at node 49)
Injected packet length average = 19.7832
Accepted packet length average = 20.4278
Total in-flight flits = 3175 (0 measured)
latency change    = 0.424777
throughput change = 0.00888753
Average latency for class 0 exceeded 500 cycles. Aborting simulation.
Too many sample periods needed to converge
Simulation unstable, ending ...
Total run time 1.8844
