BEGIN Configuration File: ../../IL2236_project/verify/figure1/ROMM/mesh88_lat
// $Id$

// Copyright (c) 2007-2015, Trustees of The Leland Stanford Junior University
// All rights reserved.
//
// Redistribution and use in source and binary forms, with or without
// modification, are permitted provided that the following conditions are met:
//
// Redistributions of source code must retain the above copyright notice, this
// list of conditions and the following disclaimer.
// Redistributions in binary form must reproduce the above copyright notice,
// this list of conditions and the following disclaimer in the documentation
// and/or other materials provided with the distribution.
//
// THIS SOFTWARE IS PROVIDED BY THE COPYRIGHT HOLDERS AND CONTRIBUTORS "AS IS"
// AND ANY EXPRESS OR IMPLIED WARRANTIES, INCLUDING, BUT NOT LIMITED TO, THE
// IMPLIED WARRANTIES OF MERCHANTABILITY AND FITNESS FOR A PARTICULAR PURPOSE
// ARE DISCLAIMED. IN NO EVENT SHALL THE COPYRIGHT OWNER OR CONTRIBUTORS BE
// LIABLE FOR ANY DIRECT, INDIRECT, INCIDENTAL, SPECIAL, EXEMPLARY, OR
// CONSEQUENTIAL DAMAGES (INCLUDING, BUT NOT LIMITED TO, PROCUREMENT OF
// SUBSTITUTE GOODS OR SERVICES; LOSS OF USE, DATA, OR PROFITS; OR BUSINESS
// INTERRUPTION) HOWEVER CAUSED AND ON ANY THEORY OF LIABILITY, WHETHER IN
// CONTRACT, STRICT LIABILITY, OR TORT (INCLUDING NEGLIGENCE OR OTHERWISE)
// ARISING IN ANY WAY OUT OF THE USE OF THIS SOFTWARE, EVEN IF ADVISED OF THE
// POSSIBILITY OF SUCH DAMAGE.

//8X8 mesh with 20 flits per packet under injection mode
//injection rate here is packet per cycle, NOT flit per cycle

// Topology

topology = mesh;
k = 8;
n = 2;

// Routing
routing_function = romm;

// Flow control
num_vcs     = 8;
vc_buf_size = 8;
wait_for_tail_credit = 1;

// Router architecture
vc_allocator = islip;
sw_allocator = islip;
alloc_iters  = 1;

credit_delay   = 2;
routing_delay  = 0;
vc_alloc_delay = 1;
sw_alloc_delay = 1;

input_speedup     = 2;
output_speedup    = 1;
internal_speedup  = 1.0;


// Traffic
traffic = uniform;
packet_size = 20;


// Simulation
sim_type = latency;

injection_rate = .036;


END Configuration File: ../../IL2236_project/verify/figure1/ROMM/mesh88_lat
Class 0:
Packet latency average = 266.816
	minimum = 28
	maximum = 763
Network latency average = 150.308
	minimum = 25
	maximum = 692
Slowest packet = 310
Flit latency average = 92.411
	minimum = 6
	maximum = 667
Slowest flit = 6219
Fragmentation average = 68.4806
	minimum = 0
	maximum = 315
Injected packet rate average = 0.0223437
	minimum = 0.007 (at node 10)
	maximum = 0.039 (at node 0)
Accepted packet rate average = 0.0185
	minimum = 0.01 (at node 53)
	maximum = 0.027 (at node 39)
Injected flit rate average = 0.439547
	minimum = 0.136 (at node 10)
	maximum = 0.774 (at node 0)
Accepted flit rate average= 0.388
	minimum = 0.2 (at node 53)
	maximum = 0.581 (at node 39)
Injected packet length average = 19.672
Accepted packet length average = 20.973
Total in-flight flits = 3768 (0 measured)
latency change    = 1
throughput change = 1
Class 0:
Packet latency average = 468.148
	minimum = 28
	maximum = 1546
Network latency average = 177.147
	minimum = 25
	maximum = 954
Slowest packet = 310
Flit latency average = 116.197
	minimum = 6
	maximum = 1126
Slowest flit = 24235
Fragmentation average = 69.7569
	minimum = 0
	maximum = 315
Injected packet rate average = 0.0198516
	minimum = 0.006 (at node 10)
	maximum = 0.0325 (at node 63)
Accepted packet rate average = 0.0182187
	minimum = 0.013 (at node 21)
	maximum = 0.025 (at node 39)
Injected flit rate average = 0.393359
	minimum = 0.1185 (at node 10)
	maximum = 0.6405 (at node 63)
Accepted flit rate average= 0.372437
	minimum = 0.2735 (at node 36)
	maximum = 0.5125 (at node 51)
Injected packet length average = 19.815
Accepted packet length average = 20.4425
Total in-flight flits = 3148 (0 measured)
latency change    = 0.430061
throughput change = 0.0417855
Average latency for class 0 exceeded 500 cycles. Aborting simulation.
Too many sample periods needed to converge
Simulation unstable, ending ...
Total run time 1.83588
