BEGIN Configuration File: ../../IL2236_project/verify/figure1/ROMM/mesh88_lat
// $Id$

// Copyright (c) 2007-2015, Trustees of The Leland Stanford Junior University
// All rights reserved.
//
// Redistribution and use in source and binary forms, with or without
// modification, are permitted provided that the following conditions are met:
//
// Redistributions of source code must retain the above copyright notice, this
// list of conditions and the following disclaimer.
// Redistributions in binary form must reproduce the above copyright notice,
// this list of conditions and the following disclaimer in the documentation
// and/or other materials provided with the distribution.
//
// THIS SOFTWARE IS PROVIDED BY THE COPYRIGHT HOLDERS AND CONTRIBUTORS "AS IS"
// AND ANY EXPRESS OR IMPLIED WARRANTIES, INCLUDING, BUT NOT LIMITED TO, THE
// IMPLIED WARRANTIES OF MERCHANTABILITY AND FITNESS FOR A PARTICULAR PURPOSE
// ARE DISCLAIMED. IN NO EVENT SHALL THE COPYRIGHT OWNER OR CONTRIBUTORS BE
// LIABLE FOR ANY DIRECT, INDIRECT, INCIDENTAL, SPECIAL, EXEMPLARY, OR
// CONSEQUENTIAL DAMAGES (INCLUDING, BUT NOT LIMITED TO, PROCUREMENT OF
// SUBSTITUTE GOODS OR SERVICES; LOSS OF USE, DATA, OR PROFITS; OR BUSINESS
// INTERRUPTION) HOWEVER CAUSED AND ON ANY THEORY OF LIABILITY, WHETHER IN
// CONTRACT, STRICT LIABILITY, OR TORT (INCLUDING NEGLIGENCE OR OTHERWISE)
// ARISING IN ANY WAY OUT OF THE USE OF THIS SOFTWARE, EVEN IF ADVISED OF THE
// POSSIBILITY OF SUCH DAMAGE.

//8X8 mesh with 20 flits per packet under injection mode
//injection rate here is packet per cycle, NOT flit per cycle

// Topology

topology = mesh;
k = 8;
n = 2;

// Routing
routing_function = romm;

// Flow control
num_vcs     = 8;
vc_buf_size = 8;
wait_for_tail_credit = 1;

// Router architecture
vc_allocator = islip;
sw_allocator = islip;
alloc_iters  = 1;

credit_delay   = 2;
routing_delay  = 0;
vc_alloc_delay = 1;
sw_alloc_delay = 1;

input_speedup     = 2;
output_speedup    = 1;
internal_speedup  = 1.0;


// Traffic
traffic = uniform;
packet_size = 20;


// Simulation
sim_type = latency;

injection_rate = .0385;


END Configuration File: ../../IL2236_project/verify/figure1/ROMM/mesh88_lat
Class 0:
Packet latency average = 270.204
	minimum = 25
	maximum = 792
Network latency average = 152.291
	minimum = 25
	maximum = 617
Slowest packet = 134
Flit latency average = 95.2904
	minimum = 6
	maximum = 598
Slowest flit = 9879
Fragmentation average = 65.6005
	minimum = 0
	maximum = 275
Injected packet rate average = 0.0211406
	minimum = 0.009 (at node 59)
	maximum = 0.036 (at node 7)
Accepted packet rate average = 0.0175625
	minimum = 0.007 (at node 62)
	maximum = 0.029 (at node 49)
Injected flit rate average = 0.415172
	minimum = 0.177 (at node 59)
	maximum = 0.72 (at node 7)
Accepted flit rate average= 0.368
	minimum = 0.148 (at node 62)
	maximum = 0.587 (at node 49)
Injected packet length average = 19.6386
Accepted packet length average = 20.9537
Total in-flight flits = 3508 (0 measured)
latency change    = 1
throughput change = 1
Class 0:
Packet latency average = 507.104
	minimum = 25
	maximum = 1585
Network latency average = 175.114
	minimum = 25
	maximum = 1102
Slowest packet = 134
Flit latency average = 113.949
	minimum = 6
	maximum = 1081
Slowest flit = 21279
Fragmentation average = 68.201
	minimum = 0
	maximum = 286
Injected packet rate average = 0.0197031
	minimum = 0.009 (at node 59)
	maximum = 0.033 (at node 23)
Accepted packet rate average = 0.0177656
	minimum = 0.0105 (at node 62)
	maximum = 0.024 (at node 49)
Injected flit rate average = 0.389922
	minimum = 0.174 (at node 59)
	maximum = 0.658 (at node 23)
Accepted flit rate average= 0.365336
	minimum = 0.2385 (at node 62)
	maximum = 0.4985 (at node 49)
Injected packet length average = 19.7898
Accepted packet length average = 20.5642
Total in-flight flits = 3677 (0 measured)
latency change    = 0.467163
throughput change = 0.00729209
Average latency for class 0 exceeded 500 cycles. Aborting simulation.
Too many sample periods needed to converge
Simulation unstable, ending ...
Total run time 1.87978
