BEGIN Configuration File: ../../IL2236_project/verify/figure1/ROMM/mesh88_lat
// $Id$

// Copyright (c) 2007-2015, Trustees of The Leland Stanford Junior University
// All rights reserved.
//
// Redistribution and use in source and binary forms, with or without
// modification, are permitted provided that the following conditions are met:
//
// Redistributions of source code must retain the above copyright notice, this
// list of conditions and the following disclaimer.
// Redistributions in binary form must reproduce the above copyright notice,
// this list of conditions and the following disclaimer in the documentation
// and/or other materials provided with the distribution.
//
// THIS SOFTWARE IS PROVIDED BY THE COPYRIGHT HOLDERS AND CONTRIBUTORS "AS IS"
// AND ANY EXPRESS OR IMPLIED WARRANTIES, INCLUDING, BUT NOT LIMITED TO, THE
// IMPLIED WARRANTIES OF MERCHANTABILITY AND FITNESS FOR A PARTICULAR PURPOSE
// ARE DISCLAIMED. IN NO EVENT SHALL THE COPYRIGHT OWNER OR CONTRIBUTORS BE
// LIABLE FOR ANY DIRECT, INDIRECT, INCIDENTAL, SPECIAL, EXEMPLARY, OR
// CONSEQUENTIAL DAMAGES (INCLUDING, BUT NOT LIMITED TO, PROCUREMENT OF
// SUBSTITUTE GOODS OR SERVICES; LOSS OF USE, DATA, OR PROFITS; OR BUSINESS
// INTERRUPTION) HOWEVER CAUSED AND ON ANY THEORY OF LIABILITY, WHETHER IN
// CONTRACT, STRICT LIABILITY, OR TORT (INCLUDING NEGLIGENCE OR OTHERWISE)
// ARISING IN ANY WAY OUT OF THE USE OF THIS SOFTWARE, EVEN IF ADVISED OF THE
// POSSIBILITY OF SUCH DAMAGE.

//8X8 mesh with 20 flits per packet under injection mode
//injection rate here is packet per cycle, NOT flit per cycle

// Topology

topology = mesh;
k = 8;
n = 2;

// Routing
routing_function = romm;

// Flow control
num_vcs     = 8;
vc_buf_size = 8;
wait_for_tail_credit = 1;

// Router architecture
vc_allocator = islip;
sw_allocator = islip;
alloc_iters  = 1;

credit_delay   = 2;
routing_delay  = 0;
vc_alloc_delay = 1;
sw_alloc_delay = 1;

input_speedup     = 2;
output_speedup    = 1;
internal_speedup  = 1.0;


// Traffic
traffic = uniform;
packet_size = 20;


// Simulation
sim_type = latency;

injection_rate = .040;


END Configuration File: ../../IL2236_project/verify/figure1/ROMM/mesh88_lat
Class 0:
Packet latency average = 291.116
	minimum = 25
	maximum = 805
Network latency average = 151.578
	minimum = 25
	maximum = 618
Slowest packet = 228
Flit latency average = 93.086
	minimum = 6
	maximum = 625
Slowest flit = 10955
Fragmentation average = 70.1069
	minimum = 0
	maximum = 240
Injected packet rate average = 0.0209688
	minimum = 0.006 (at node 45)
	maximum = 0.039 (at node 7)
Accepted packet rate average = 0.0173906
	minimum = 0.01 (at node 63)
	maximum = 0.026 (at node 7)
Injected flit rate average = 0.412438
	minimum = 0.116 (at node 45)
	maximum = 0.776 (at node 7)
Accepted flit rate average= 0.366547
	minimum = 0.2 (at node 63)
	maximum = 0.52 (at node 7)
Injected packet length average = 19.6692
Accepted packet length average = 21.0773
Total in-flight flits = 3381 (0 measured)
latency change    = 1
throughput change = 1
Class 0:
Packet latency average = 531.037
	minimum = 25
	maximum = 1616
Network latency average = 171.175
	minimum = 25
	maximum = 914
Slowest packet = 228
Flit latency average = 109.765
	minimum = 6
	maximum = 1021
Slowest flit = 25973
Fragmentation average = 67.9035
	minimum = 0
	maximum = 282
Injected packet rate average = 0.0197578
	minimum = 0.0085 (at node 45)
	maximum = 0.036 (at node 7)
Accepted packet rate average = 0.0178125
	minimum = 0.012 (at node 15)
	maximum = 0.0255 (at node 49)
Injected flit rate average = 0.391297
	minimum = 0.1665 (at node 45)
	maximum = 0.719 (at node 7)
Accepted flit rate average= 0.364852
	minimum = 0.2475 (at node 25)
	maximum = 0.535 (at node 49)
Injected packet length average = 19.8047
Accepted packet length average = 20.4829
Total in-flight flits = 3879 (0 measured)
latency change    = 0.451797
throughput change = 0.00464658
Average latency for class 0 exceeded 500 cycles. Aborting simulation.
Too many sample periods needed to converge
Simulation unstable, ending ...
Total run time 1.8171
