BEGIN Configuration File: ../../IL2236_project/verify/figure1/ROMM/mesh88_lat
// $Id$

// Copyright (c) 2007-2015, Trustees of The Leland Stanford Junior University
// All rights reserved.
//
// Redistribution and use in source and binary forms, with or without
// modification, are permitted provided that the following conditions are met:
//
// Redistributions of source code must retain the above copyright notice, this
// list of conditions and the following disclaimer.
// Redistributions in binary form must reproduce the above copyright notice,
// this list of conditions and the following disclaimer in the documentation
// and/or other materials provided with the distribution.
//
// THIS SOFTWARE IS PROVIDED BY THE COPYRIGHT HOLDERS AND CONTRIBUTORS "AS IS"
// AND ANY EXPRESS OR IMPLIED WARRANTIES, INCLUDING, BUT NOT LIMITED TO, THE
// IMPLIED WARRANTIES OF MERCHANTABILITY AND FITNESS FOR A PARTICULAR PURPOSE
// ARE DISCLAIMED. IN NO EVENT SHALL THE COPYRIGHT OWNER OR CONTRIBUTORS BE
// LIABLE FOR ANY DIRECT, INDIRECT, INCIDENTAL, SPECIAL, EXEMPLARY, OR
// CONSEQUENTIAL DAMAGES (INCLUDING, BUT NOT LIMITED TO, PROCUREMENT OF
// SUBSTITUTE GOODS OR SERVICES; LOSS OF USE, DATA, OR PROFITS; OR BUSINESS
// INTERRUPTION) HOWEVER CAUSED AND ON ANY THEORY OF LIABILITY, WHETHER IN
// CONTRACT, STRICT LIABILITY, OR TORT (INCLUDING NEGLIGENCE OR OTHERWISE)
// ARISING IN ANY WAY OUT OF THE USE OF THIS SOFTWARE, EVEN IF ADVISED OF THE
// POSSIBILITY OF SUCH DAMAGE.

//8X8 mesh with 20 flits per packet under injection mode
//injection rate here is packet per cycle, NOT flit per cycle

// Topology

topology = mesh;
k = 8;
n = 2;

// Routing
routing_function = romm;

// Flow control
num_vcs     = 8;
vc_buf_size = 8;
wait_for_tail_credit = 1;

// Router architecture
vc_allocator = islip;
sw_allocator = islip;
alloc_iters  = 1;

credit_delay   = 2;
routing_delay  = 0;
vc_alloc_delay = 1;
sw_alloc_delay = 1;

input_speedup     = 2;
output_speedup    = 1;
internal_speedup  = 1.0;


// Traffic
traffic = uniform;
packet_size = 20;


// Simulation
sim_type = latency;

injection_rate = .042;


END Configuration File: ../../IL2236_project/verify/figure1/ROMM/mesh88_lat
Class 0:
Packet latency average = 303.517
	minimum = 25
	maximum = 829
Network latency average = 157.009
	minimum = 25
	maximum = 689
Slowest packet = 105
Flit latency average = 97.7125
	minimum = 6
	maximum = 610
Slowest flit = 8339
Fragmentation average = 70.9613
	minimum = 0
	maximum = 317
Injected packet rate average = 0.0218437
	minimum = 0.01 (at node 52)
	maximum = 0.04 (at node 56)
Accepted packet rate average = 0.0181719
	minimum = 0.011 (at node 22)
	maximum = 0.029 (at node 39)
Injected flit rate average = 0.429344
	minimum = 0.188 (at node 52)
	maximum = 0.791 (at node 56)
Accepted flit rate average= 0.380656
	minimum = 0.242 (at node 21)
	maximum = 0.58 (at node 39)
Injected packet length average = 19.6552
Accepted packet length average = 20.9475
Total in-flight flits = 3598 (0 measured)
latency change    = 1
throughput change = 1
Class 0:
Packet latency average = 534.622
	minimum = 25
	maximum = 1638
Network latency average = 168.137
	minimum = 25
	maximum = 1532
Slowest packet = 443
Flit latency average = 107.031
	minimum = 6
	maximum = 1506
Slowest flit = 8879
Fragmentation average = 68.9254
	minimum = 0
	maximum = 317
Injected packet rate average = 0.0202891
	minimum = 0.0095 (at node 2)
	maximum = 0.0375 (at node 56)
Accepted packet rate average = 0.0185391
	minimum = 0.013 (at node 29)
	maximum = 0.0255 (at node 38)
Injected flit rate average = 0.401969
	minimum = 0.184 (at node 2)
	maximum = 0.746 (at node 56)
Accepted flit rate average= 0.378531
	minimum = 0.2625 (at node 29)
	maximum = 0.5275 (at node 38)
Injected packet length average = 19.8121
Accepted packet length average = 20.418
Total in-flight flits = 3488 (0 measured)
latency change    = 0.432278
throughput change = 0.0056138
Average latency for class 0 exceeded 500 cycles. Aborting simulation.
Too many sample periods needed to converge
Simulation unstable, ending ...
Total run time 1.83117
