BEGIN Configuration File: ../../IL2236_project/verify/figure1/ROMM/mesh88_lat
// $Id$

// Copyright (c) 2007-2015, Trustees of The Leland Stanford Junior University
// All rights reserved.
//
// Redistribution and use in source and binary forms, with or without
// modification, are permitted provided that the following conditions are met:
//
// Redistributions of source code must retain the above copyright notice, this
// list of conditions and the following disclaimer.
// Redistributions in binary form must reproduce the above copyright notice,
// this list of conditions and the following disclaimer in the documentation
// and/or other materials provided with the distribution.
//
// THIS SOFTWARE IS PROVIDED BY THE COPYRIGHT HOLDERS AND CONTRIBUTORS "AS IS"
// AND ANY EXPRESS OR IMPLIED WARRANTIES, INCLUDING, BUT NOT LIMITED TO, THE
// IMPLIED WARRANTIES OF MERCHANTABILITY AND FITNESS FOR A PARTICULAR PURPOSE
// ARE DISCLAIMED. IN NO EVENT SHALL THE COPYRIGHT OWNER OR CONTRIBUTORS BE
// LIABLE FOR ANY DIRECT, INDIRECT, INCIDENTAL, SPECIAL, EXEMPLARY, OR
// CONSEQUENTIAL DAMAGES (INCLUDING, BUT NOT LIMITED TO, PROCUREMENT OF
// SUBSTITUTE GOODS OR SERVICES; LOSS OF USE, DATA, OR PROFITS; OR BUSINESS
// INTERRUPTION) HOWEVER CAUSED AND ON ANY THEORY OF LIABILITY, WHETHER IN
// CONTRACT, STRICT LIABILITY, OR TORT (INCLUDING NEGLIGENCE OR OTHERWISE)
// ARISING IN ANY WAY OUT OF THE USE OF THIS SOFTWARE, EVEN IF ADVISED OF THE
// POSSIBILITY OF SUCH DAMAGE.

//8X8 mesh with 20 flits per packet under injection mode
//injection rate here is packet per cycle, NOT flit per cycle

// Topology

topology = mesh;
k = 8;
n = 2;

// Routing
routing_function = romm;

// Flow control
num_vcs     = 8;
vc_buf_size = 8;
wait_for_tail_credit = 1;

// Router architecture
vc_allocator = islip;
sw_allocator = islip;
alloc_iters  = 1;

credit_delay   = 2;
routing_delay  = 0;
vc_alloc_delay = 1;
sw_alloc_delay = 1;

input_speedup     = 2;
output_speedup    = 1;
internal_speedup  = 1.0;


// Traffic
traffic = uniform;
packet_size = 20;


// Simulation
sim_type = latency;

injection_rate = .0455;


END Configuration File: ../../IL2236_project/verify/figure1/ROMM/mesh88_lat
Class 0:
Packet latency average = 313.796
	minimum = 25
	maximum = 808
Network latency average = 158.873
	minimum = 25
	maximum = 673
Slowest packet = 175
Flit latency average = 99.2849
	minimum = 6
	maximum = 636
Slowest flit = 9947
Fragmentation average = 70.3225
	minimum = 0
	maximum = 246
Injected packet rate average = 0.0218125
	minimum = 0.012 (at node 29)
	maximum = 0.04 (at node 7)
Accepted packet rate average = 0.0177344
	minimum = 0.009 (at node 29)
	maximum = 0.025 (at node 14)
Injected flit rate average = 0.428719
	minimum = 0.232 (at node 29)
	maximum = 0.796 (at node 7)
Accepted flit rate average= 0.372891
	minimum = 0.193 (at node 29)
	maximum = 0.561 (at node 8)
Injected packet length average = 19.6547
Accepted packet length average = 21.0264
Total in-flight flits = 4055 (0 measured)
latency change    = 1
throughput change = 1
Class 0:
Packet latency average = 578.783
	minimum = 25
	maximum = 1594
Network latency average = 181.787
	minimum = 25
	maximum = 1227
Slowest packet = 175
Flit latency average = 118.788
	minimum = 6
	maximum = 1198
Slowest flit = 18415
Fragmentation average = 70.9832
	minimum = 0
	maximum = 289
Injected packet rate average = 0.0201172
	minimum = 0.0125 (at node 29)
	maximum = 0.0365 (at node 63)
Accepted packet rate average = 0.0181875
	minimum = 0.012 (at node 29)
	maximum = 0.025 (at node 49)
Injected flit rate average = 0.398797
	minimum = 0.2435 (at node 29)
	maximum = 0.729 (at node 63)
Accepted flit rate average= 0.372617
	minimum = 0.24 (at node 29)
	maximum = 0.5195 (at node 49)
Injected packet length average = 19.8237
Accepted packet length average = 20.4875
Total in-flight flits = 3805 (0 measured)
latency change    = 0.457836
throughput change = 0.00073383
Average latency for class 0 exceeded 500 cycles. Aborting simulation.
Too many sample periods needed to converge
Simulation unstable, ending ...
Total run time 1.94732
