BEGIN Configuration File: ../../IL2236_project/verify/figure7/84/mesh88_lat
// $Id$

// Copyright (c) 2007-2015, Trustees of The Leland Stanford Junior University
// All rights reserved.
//
// Redistribution and use in source and binary forms, with or without
// modification, are permitted provided that the following conditions are met:
//
// Redistributions of source code must retain the above copyright notice, this
// list of conditions and the following disclaimer.
// Redistributions in binary form must reproduce the above copyright notice,
// this list of conditions and the following disclaimer in the documentation
// and/or other materials provided with the distribution.
//
// THIS SOFTWARE IS PROVIDED BY THE COPYRIGHT HOLDERS AND CONTRIBUTORS "AS IS"
// AND ANY EXPRESS OR IMPLIED WARRANTIES, INCLUDING, BUT NOT LIMITED TO, THE
// IMPLIED WARRANTIES OF MERCHANTABILITY AND FITNESS FOR A PARTICULAR PURPOSE
// ARE DISCLAIMED. IN NO EVENT SHALL THE COPYRIGHT OWNER OR CONTRIBUTORS BE
// LIABLE FOR ANY DIRECT, INDIRECT, INCIDENTAL, SPECIAL, EXEMPLARY, OR
// CONSEQUENTIAL DAMAGES (INCLUDING, BUT NOT LIMITED TO, PROCUREMENT OF
// SUBSTITUTE GOODS OR SERVICES; LOSS OF USE, DATA, OR PROFITS; OR BUSINESS
// INTERRUPTION) HOWEVER CAUSED AND ON ANY THEORY OF LIABILITY, WHETHER IN
// CONTRACT, STRICT LIABILITY, OR TORT (INCLUDING NEGLIGENCE OR OTHERWISE)
// ARISING IN ANY WAY OUT OF THE USE OF THIS SOFTWARE, EVEN IF ADVISED OF THE
// POSSIBILITY OF SUCH DAMAGE.

//8X8 mesh with 20 flits per packet under injection mode
//injection rate here is packet per cycle, NOT flit per cycle

// Topology

topology = mesh;
k = 8;
n = 2;

// Routing
routing_function = dor;

// Flow control
num_vcs     = 8;
vc_buf_size = 4;
wait_for_tail_credit = 1;

// Router architecture
vc_allocator = islip;
sw_allocator = islip;
alloc_iters  = 1;

credit_delay   = 2;
routing_delay  = 0;
vc_alloc_delay = 1;
sw_alloc_delay = 1;

input_speedup     = 2;
output_speedup    = 1;
internal_speedup  = 1.0;


// Traffic
traffic = uniform;
packet_size = 20;


// Simulation
sim_type = latency;

injection_rate = .0005;


END Configuration File: ../../IL2236_project/verify/figure7/84/mesh88_lat
Class 0:
Packet latency average = 55.0909
	minimum = 41
	maximum = 73
Network latency average = 55.0909
	minimum = 41
	maximum = 73
Slowest packet = 21
Flit latency average = 24.2172
	minimum = 6
	maximum = 44
Slowest flit = 424
Fragmentation average = 12.4545
	minimum = 12
	maximum = 17
Injected packet rate average = 0.000359375
	minimum = 0 (at node 1)
	maximum = 0.003 (at node 29)
Accepted packet rate average = 0.00034375
	minimum = 0 (at node 0)
	maximum = 0.003 (at node 46)
Injected flit rate average = 0.00698438
	minimum = 0 (at node 1)
	maximum = 0.06 (at node 29)
Accepted flit rate average= 0.00690625
	minimum = 0 (at node 0)
	maximum = 0.06 (at node 46)
Injected packet length average = 19.4348
Accepted packet length average = 20.0909
Total in-flight flits = 18 (0 measured)
latency change    = 1
throughput change = 1
Class 0:
Packet latency average = 56.7963
	minimum = 37
	maximum = 77
Network latency average = 56.7963
	minimum = 37
	maximum = 77
Slowest packet = 23
Flit latency average = 26.1068
	minimum = 6
	maximum = 48
Slowest flit = 464
Fragmentation average = 12.3148
	minimum = 12
	maximum = 17
Injected packet rate average = 0.000429688
	minimum = 0 (at node 1)
	maximum = 0.002 (at node 6)
Accepted packet rate average = 0.000421875
	minimum = 0 (at node 0)
	maximum = 0.0015 (at node 2)
Injected flit rate average = 0.00859375
	minimum = 0 (at node 1)
	maximum = 0.04 (at node 6)
Accepted flit rate average= 0.0085625
	minimum = 0 (at node 0)
	maximum = 0.03 (at node 2)
Injected packet length average = 20
Accepted packet length average = 20.2963
Total in-flight flits = 4 (0 measured)
latency change    = 0.0300264
throughput change = 0.193431
Class 0:
Packet latency average = 63.0312
	minimum = 37
	maximum = 106
Network latency average = 62.375
	minimum = 37
	maximum = 93
Slowest packet = 64
Flit latency average = 31.0962
	minimum = 6
	maximum = 64
Slowest flit = 1284
Fragmentation average = 13
	minimum = 12
	maximum = 18
Injected packet rate average = 0.000484375
	minimum = 0 (at node 0)
	maximum = 0.004 (at node 5)
Accepted packet rate average = 0.0005
	minimum = 0 (at node 3)
	maximum = 0.003 (at node 18)
Injected flit rate average = 0.0096875
	minimum = 0 (at node 0)
	maximum = 0.08 (at node 5)
Accepted flit rate average= 0.00975
	minimum = 0 (at node 3)
	maximum = 0.06 (at node 18)
Injected packet length average = 20
Accepted packet length average = 19.5
Total in-flight flits = 0 (0 measured)
latency change    = 0.0989185
throughput change = 0.121795
Warmed up ...Time used is 3000 cycles
Class 0:
Packet latency average = 59.9032
	minimum = 41
	maximum = 81
Network latency average = 59.5161
	minimum = 41
	maximum = 81
Slowest packet = 101
Flit latency average = 28.8242
	minimum = 10
	maximum = 52
Slowest flit = 2024
Fragmentation average = 12.1935
	minimum = 12
	maximum = 15
Injected packet rate average = 0.0005
	minimum = 0 (at node 0)
	maximum = 0.003 (at node 35)
Accepted packet rate average = 0.000484375
	minimum = 0 (at node 3)
	maximum = 0.003 (at node 57)
Injected flit rate average = 0.00984375
	minimum = 0 (at node 0)
	maximum = 0.05 (at node 35)
Accepted flit rate average= 0.0096875
	minimum = 0 (at node 3)
	maximum = 0.06 (at node 57)
Injected packet length average = 19.6875
Accepted packet length average = 20
Total in-flight flits = 20 (20 measured)
latency change    = 0.052218
throughput change = 0.00645161
Class 0:
Packet latency average = 59.6481
	minimum = 41
	maximum = 92
Network latency average = 59.0741
	minimum = 41
	maximum = 81
Slowest packet = 101
Flit latency average = 28.5785
	minimum = 10
	maximum = 52
Slowest flit = 2024
Fragmentation average = 12.2222
	minimum = 12
	maximum = 18
Injected packet rate average = 0.0004375
	minimum = 0 (at node 0)
	maximum = 0.002 (at node 22)
Accepted packet rate average = 0.000421875
	minimum = 0 (at node 3)
	maximum = 0.002 (at node 21)
Injected flit rate average = 0.00864844
	minimum = 0 (at node 0)
	maximum = 0.04 (at node 35)
Accepted flit rate average= 0.0085625
	minimum = 0 (at node 3)
	maximum = 0.04 (at node 21)
Injected packet length average = 19.7679
Accepted packet length average = 20.2963
Total in-flight flits = 24 (24 measured)
latency change    = 0.00427637
throughput change = 0.131387
Class 0:
Packet latency average = 60.0723
	minimum = 41
	maximum = 92
Network latency average = 59.6988
	minimum = 41
	maximum = 85
Slowest packet = 101
Flit latency average = 28.9761
	minimum = 10
	maximum = 56
Slowest flit = 2904
Fragmentation average = 12.1446
	minimum = 12
	maximum = 18
Injected packet rate average = 0.000442708
	minimum = 0 (at node 1)
	maximum = 0.00166667 (at node 4)
Accepted packet rate average = 0.000432292
	minimum = 0 (at node 4)
	maximum = 0.00166667 (at node 57)
Injected flit rate average = 0.00885417
	minimum = 0 (at node 1)
	maximum = 0.0333333 (at node 4)
Accepted flit rate average= 0.00871354
	minimum = 0 (at node 4)
	maximum = 0.0333333 (at node 57)
Injected packet length average = 20
Accepted packet length average = 20.1566
Total in-flight flits = 27 (27 measured)
latency change    = 0.00706051
throughput change = 0.0173341
Class 0:
Packet latency average = 59.3333
	minimum = 41
	maximum = 92
Network latency average = 59.0088
	minimum = 41
	maximum = 85
Slowest packet = 101
Flit latency average = 28.2431
	minimum = 10
	maximum = 56
Slowest flit = 2904
Fragmentation average = 12.2544
	minimum = 12
	maximum = 19
Injected packet rate average = 0.000449219
	minimum = 0 (at node 2)
	maximum = 0.0015 (at node 35)
Accepted packet rate average = 0.000445313
	minimum = 0 (at node 8)
	maximum = 0.00125 (at node 57)
Injected flit rate average = 0.00898437
	minimum = 0 (at node 2)
	maximum = 0.03 (at node 35)
Accepted flit rate average= 0.00894922
	minimum = 0 (at node 8)
	maximum = 0.025 (at node 57)
Injected packet length average = 20
Accepted packet length average = 20.0965
Total in-flight flits = 9 (9 measured)
latency change    = 0.0124543
throughput change = 0.0263349
Class 0:
Packet latency average = 58.4333
	minimum = 37
	maximum = 92
Network latency average = 58.1867
	minimum = 37
	maximum = 85
Slowest packet = 101
Flit latency average = 27.3743
	minimum = 6
	maximum = 56
Slowest flit = 2904
Fragmentation average = 12.3067
	minimum = 12
	maximum = 19
Injected packet rate average = 0.000471875
	minimum = 0 (at node 2)
	maximum = 0.0012 (at node 35)
Accepted packet rate average = 0.00046875
	minimum = 0 (at node 13)
	maximum = 0.0014 (at node 39)
Injected flit rate average = 0.009425
	minimum = 0 (at node 2)
	maximum = 0.024 (at node 35)
Accepted flit rate average= 0.0094
	minimum = 0 (at node 13)
	maximum = 0.028 (at node 39)
Injected packet length average = 19.9735
Accepted packet length average = 20.0533
Total in-flight flits = 12 (12 measured)
latency change    = 0.0154022
throughput change = 0.0479555
Draining all recorded packets ...
Draining remaining packets ...
Time taken is 8102 cycles
====== Overall Traffic Statistics ======
====== Traffic class 0 ======
Packet latency average = 58.3444 (1 samples)
	minimum = 37 (1 samples)
	maximum = 92 (1 samples)
Network latency average = 58.0993 (1 samples)
	minimum = 37 (1 samples)
	maximum = 85 (1 samples)
Flit latency average = 27.3383 (1 samples)
	minimum = 6 (1 samples)
	maximum = 56 (1 samples)
Fragmentation average = 12.3046 (1 samples)
	minimum = 12 (1 samples)
	maximum = 19 (1 samples)
Injected packet rate average = 0.000471875 (1 samples)
	minimum = 0 (1 samples)
	maximum = 0.0012 (1 samples)
Accepted packet rate average = 0.00046875 (1 samples)
	minimum = 0 (1 samples)
	maximum = 0.0014 (1 samples)
Injected flit rate average = 0.009425 (1 samples)
	minimum = 0 (1 samples)
	maximum = 0.024 (1 samples)
Accepted flit rate average = 0.0094 (1 samples)
	minimum = 0 (1 samples)
	maximum = 0.028 (1 samples)
Injected packet size average = 19.9735 (1 samples)
Accepted packet size average = 20.0533 (1 samples)
Hops average = 6.19868 (1 samples)
Total run time 0.736895
