BEGIN Configuration File: ../../IL2236_project/verify/figure7/84/mesh88_lat
// $Id$

// Copyright (c) 2007-2015, Trustees of The Leland Stanford Junior University
// All rights reserved.
//
// Redistribution and use in source and binary forms, with or without
// modification, are permitted provided that the following conditions are met:
//
// Redistributions of source code must retain the above copyright notice, this
// list of conditions and the following disclaimer.
// Redistributions in binary form must reproduce the above copyright notice,
// this list of conditions and the following disclaimer in the documentation
// and/or other materials provided with the distribution.
//
// THIS SOFTWARE IS PROVIDED BY THE COPYRIGHT HOLDERS AND CONTRIBUTORS "AS IS"
// AND ANY EXPRESS OR IMPLIED WARRANTIES, INCLUDING, BUT NOT LIMITED TO, THE
// IMPLIED WARRANTIES OF MERCHANTABILITY AND FITNESS FOR A PARTICULAR PURPOSE
// ARE DISCLAIMED. IN NO EVENT SHALL THE COPYRIGHT OWNER OR CONTRIBUTORS BE
// LIABLE FOR ANY DIRECT, INDIRECT, INCIDENTAL, SPECIAL, EXEMPLARY, OR
// CONSEQUENTIAL DAMAGES (INCLUDING, BUT NOT LIMITED TO, PROCUREMENT OF
// SUBSTITUTE GOODS OR SERVICES; LOSS OF USE, DATA, OR PROFITS; OR BUSINESS
// INTERRUPTION) HOWEVER CAUSED AND ON ANY THEORY OF LIABILITY, WHETHER IN
// CONTRACT, STRICT LIABILITY, OR TORT (INCLUDING NEGLIGENCE OR OTHERWISE)
// ARISING IN ANY WAY OUT OF THE USE OF THIS SOFTWARE, EVEN IF ADVISED OF THE
// POSSIBILITY OF SUCH DAMAGE.

//8X8 mesh with 20 flits per packet under injection mode
//injection rate here is packet per cycle, NOT flit per cycle

// Topology

topology = mesh;
k = 8;
n = 2;

// Routing
routing_function = dor;

// Flow control
num_vcs     = 8;
vc_buf_size = 4;
wait_for_tail_credit = 1;

// Router architecture
vc_allocator = islip;
sw_allocator = islip;
alloc_iters  = 1;

credit_delay   = 2;
routing_delay  = 0;
vc_alloc_delay = 1;
sw_alloc_delay = 1;

input_speedup     = 2;
output_speedup    = 1;
internal_speedup  = 1.0;


// Traffic
traffic = uniform;
packet_size = 20;


// Simulation
sim_type = latency;

injection_rate = .0020;


END Configuration File: ../../IL2236_project/verify/figure7/84/mesh88_lat
Class 0:
Packet latency average = 62.2589
	minimum = 37
	maximum = 91
Network latency average = 61.5982
	minimum = 37
	maximum = 89
Slowest packet = 24
Flit latency average = 29.4087
	minimum = 6
	maximum = 60
Slowest flit = 484
Fragmentation average = 14.375
	minimum = 12
	maximum = 41
Injected packet rate average = 0.0018125
	minimum = 0 (at node 15)
	maximum = 0.005 (at node 10)
Accepted packet rate average = 0.00175
	minimum = 0 (at node 20)
	maximum = 0.007 (at node 18)
Injected flit rate average = 0.0357188
	minimum = 0 (at node 15)
	maximum = 0.1 (at node 10)
Accepted flit rate average= 0.0350156
	minimum = 0 (at node 20)
	maximum = 0.14 (at node 18)
Injected packet length average = 19.7069
Accepted packet length average = 20.0089
Total in-flight flits = 79 (0 measured)
latency change    = 1
throughput change = 1
Class 0:
Packet latency average = 61.3476
	minimum = 37
	maximum = 91
Network latency average = 60.3691
	minimum = 37
	maximum = 89
Slowest packet = 24
Flit latency average = 28.4589
	minimum = 6
	maximum = 60
Slowest flit = 484
Fragmentation average = 13.9571
	minimum = 12
	maximum = 41
Injected packet rate average = 0.00189062
	minimum = 0 (at node 49)
	maximum = 0.004 (at node 6)
Accepted packet rate average = 0.00182031
	minimum = 0 (at node 29)
	maximum = 0.0045 (at node 18)
Injected flit rate average = 0.0376563
	minimum = 0 (at node 49)
	maximum = 0.08 (at node 6)
Accepted flit rate average= 0.0369609
	minimum = 0 (at node 29)
	maximum = 0.097 (at node 18)
Injected packet length average = 19.9174
Accepted packet length average = 20.3047
Total in-flight flits = 109 (0 measured)
latency change    = 0.0148545
throughput change = 0.0526316
Class 0:
Packet latency average = 60.8099
	minimum = 41
	maximum = 95
Network latency average = 59.9008
	minimum = 41
	maximum = 94
Slowest packet = 270
Flit latency average = 28.5988
	minimum = 10
	maximum = 64
Slowest flit = 6824
Fragmentation average = 13.3388
	minimum = 12
	maximum = 21
Injected packet rate average = 0.00189062
	minimum = 0 (at node 4)
	maximum = 0.006 (at node 58)
Accepted packet rate average = 0.00189062
	minimum = 0 (at node 9)
	maximum = 0.005 (at node 53)
Injected flit rate average = 0.0377188
	minimum = 0 (at node 4)
	maximum = 0.12 (at node 58)
Accepted flit rate average= 0.0377813
	minimum = 0 (at node 9)
	maximum = 0.102 (at node 53)
Injected packet length average = 19.9504
Accepted packet length average = 19.9835
Total in-flight flits = 111 (0 measured)
latency change    = 0.00884267
throughput change = 0.0217122
Warmed up ...Time used is 3000 cycles
Class 0:
Packet latency average = 62.32
	minimum = 37
	maximum = 109
Network latency average = 60.088
	minimum = 37
	maximum = 95
Slowest packet = 382
Flit latency average = 28.1506
	minimum = 6
	maximum = 61
Slowest flit = 9394
Fragmentation average = 13.912
	minimum = 12
	maximum = 31
Injected packet rate average = 0.00210938
	minimum = 0 (at node 2)
	maximum = 0.006 (at node 4)
Accepted packet rate average = 0.00209375
	minimum = 0 (at node 21)
	maximum = 0.005 (at node 12)
Injected flit rate average = 0.0421094
	minimum = 0 (at node 2)
	maximum = 0.12 (at node 4)
Accepted flit rate average= 0.0419062
	minimum = 0 (at node 22)
	maximum = 0.1 (at node 12)
Injected packet length average = 19.963
Accepted packet length average = 20.0149
Total in-flight flits = 129 (129 measured)
latency change    = 0.0242311
throughput change = 0.098434
Class 0:
Packet latency average = 60.4449
	minimum = 37
	maximum = 109
Network latency average = 58.9025
	minimum = 37
	maximum = 95
Slowest packet = 382
Flit latency average = 27.104
	minimum = 6
	maximum = 61
Slowest flit = 9394
Fragmentation average = 13.7119
	minimum = 12
	maximum = 31
Injected packet rate average = 0.00191406
	minimum = 0 (at node 12)
	maximum = 0.0055 (at node 4)
Accepted packet rate average = 0.00191406
	minimum = 0 (at node 22)
	maximum = 0.004 (at node 12)
Injected flit rate average = 0.0381484
	minimum = 0 (at node 12)
	maximum = 0.11 (at node 4)
Accepted flit rate average= 0.0382422
	minimum = 0 (at node 22)
	maximum = 0.0895 (at node 27)
Injected packet length average = 19.9306
Accepted packet length average = 19.9796
Total in-flight flits = 116 (116 measured)
latency change    = 0.0310214
throughput change = 0.0958121
Class 0:
Packet latency average = 61.5
	minimum = 37
	maximum = 109
Network latency average = 59.9139
	minimum = 37
	maximum = 95
Slowest packet = 382
Flit latency average = 28.0037
	minimum = 6
	maximum = 61
Slowest flit = 9394
Fragmentation average = 13.7194
	minimum = 12
	maximum = 31
Injected packet rate average = 0.00190625
	minimum = 0 (at node 45)
	maximum = 0.00433333 (at node 4)
Accepted packet rate average = 0.00192187
	minimum = 0.000333333 (at node 22)
	maximum = 0.004 (at node 6)
Injected flit rate average = 0.0381823
	minimum = 0 (at node 45)
	maximum = 0.0866667 (at node 4)
Accepted flit rate average= 0.0383125
	minimum = 0.00666667 (at node 22)
	maximum = 0.0746667 (at node 6)
Injected packet length average = 20.0301
Accepted packet length average = 19.935
Total in-flight flits = 75 (75 measured)
latency change    = 0.0171558
throughput change = 0.00183524
Class 0:
Packet latency average = 60.7837
	minimum = 37
	maximum = 109
Network latency average = 59.4735
	minimum = 37
	maximum = 95
Slowest packet = 382
Flit latency average = 27.7124
	minimum = 6
	maximum = 63
Slowest flit = 15319
Fragmentation average = 13.6306
	minimum = 12
	maximum = 31
Injected packet rate average = 0.0019375
	minimum = 0.0005 (at node 8)
	maximum = 0.00375 (at node 10)
Accepted packet rate average = 0.00194922
	minimum = 0.0005 (at node 22)
	maximum = 0.00375 (at node 6)
Injected flit rate average = 0.0387031
	minimum = 0.01 (at node 8)
	maximum = 0.075 (at node 10)
Accepted flit rate average= 0.0388281
	minimum = 0.01 (at node 22)
	maximum = 0.071 (at node 6)
Injected packet length average = 19.9758
Accepted packet length average = 19.9198
Total in-flight flits = 91 (91 measured)
latency change    = 0.0117849
throughput change = 0.0132797
Class 0:
Packet latency average = 60.8266
	minimum = 37
	maximum = 109
Network latency average = 59.5072
	minimum = 37
	maximum = 95
Slowest packet = 382
Flit latency average = 27.74
	minimum = 6
	maximum = 63
Slowest flit = 15319
Fragmentation average = 13.5955
	minimum = 12
	maximum = 31
Injected packet rate average = 0.00196562
	minimum = 0.001 (at node 8)
	maximum = 0.0042 (at node 10)
Accepted packet rate average = 0.001975
	minimum = 0.0004 (at node 22)
	maximum = 0.0034 (at node 6)
Injected flit rate average = 0.0393437
	minimum = 0.02 (at node 8)
	maximum = 0.084 (at node 10)
Accepted flit rate average= 0.0394469
	minimum = 0.008 (at node 22)
	maximum = 0.0696 (at node 27)
Injected packet length average = 20.0159
Accepted packet length average = 19.9731
Total in-flight flits = 68 (68 measured)
latency change    = 0.000706463
throughput change = 0.0156857
Draining all recorded packets ...
Draining remaining packets ...
Time taken is 8111 cycles
====== Overall Traffic Statistics ======
====== Traffic class 0 ======
Packet latency average = 60.7901 (1 samples)
	minimum = 37 (1 samples)
	maximum = 109 (1 samples)
Network latency average = 59.4817 (1 samples)
	minimum = 37 (1 samples)
	maximum = 95 (1 samples)
Flit latency average = 27.735 (1 samples)
	minimum = 6 (1 samples)
	maximum = 63 (1 samples)
Fragmentation average = 13.6105 (1 samples)
	minimum = 12 (1 samples)
	maximum = 31 (1 samples)
Injected packet rate average = 0.00196562 (1 samples)
	minimum = 0.001 (1 samples)
	maximum = 0.0042 (1 samples)
Accepted packet rate average = 0.001975 (1 samples)
	minimum = 0.0004 (1 samples)
	maximum = 0.0034 (1 samples)
Injected flit rate average = 0.0393437 (1 samples)
	minimum = 0.02 (1 samples)
	maximum = 0.084 (1 samples)
Accepted flit rate average = 0.0394469 (1 samples)
	minimum = 0.008 (1 samples)
	maximum = 0.0696 (1 samples)
Injected packet size average = 20.0159 (1 samples)
Accepted packet size average = 19.9731 (1 samples)
Hops average = 6.21304 (1 samples)
Total run time 1.27066
