BEGIN Configuration File: ../../IL2236_project/verify/figure7/84/mesh88_lat
// $Id$

// Copyright (c) 2007-2015, Trustees of The Leland Stanford Junior University
// All rights reserved.
//
// Redistribution and use in source and binary forms, with or without
// modification, are permitted provided that the following conditions are met:
//
// Redistributions of source code must retain the above copyright notice, this
// list of conditions and the following disclaimer.
// Redistributions in binary form must reproduce the above copyright notice,
// this list of conditions and the following disclaimer in the documentation
// and/or other materials provided with the distribution.
//
// THIS SOFTWARE IS PROVIDED BY THE COPYRIGHT HOLDERS AND CONTRIBUTORS "AS IS"
// AND ANY EXPRESS OR IMPLIED WARRANTIES, INCLUDING, BUT NOT LIMITED TO, THE
// IMPLIED WARRANTIES OF MERCHANTABILITY AND FITNESS FOR A PARTICULAR PURPOSE
// ARE DISCLAIMED. IN NO EVENT SHALL THE COPYRIGHT OWNER OR CONTRIBUTORS BE
// LIABLE FOR ANY DIRECT, INDIRECT, INCIDENTAL, SPECIAL, EXEMPLARY, OR
// CONSEQUENTIAL DAMAGES (INCLUDING, BUT NOT LIMITED TO, PROCUREMENT OF
// SUBSTITUTE GOODS OR SERVICES; LOSS OF USE, DATA, OR PROFITS; OR BUSINESS
// INTERRUPTION) HOWEVER CAUSED AND ON ANY THEORY OF LIABILITY, WHETHER IN
// CONTRACT, STRICT LIABILITY, OR TORT (INCLUDING NEGLIGENCE OR OTHERWISE)
// ARISING IN ANY WAY OUT OF THE USE OF THIS SOFTWARE, EVEN IF ADVISED OF THE
// POSSIBILITY OF SUCH DAMAGE.

//8X8 mesh with 20 flits per packet under injection mode
//injection rate here is packet per cycle, NOT flit per cycle

// Topology

topology = mesh;
k = 8;
n = 2;

// Routing
routing_function = dor;

// Flow control
num_vcs     = 8;
vc_buf_size = 4;
wait_for_tail_credit = 1;

// Router architecture
vc_allocator = islip;
sw_allocator = islip;
alloc_iters  = 1;

credit_delay   = 2;
routing_delay  = 0;
vc_alloc_delay = 1;
sw_alloc_delay = 1;

input_speedup     = 2;
output_speedup    = 1;
internal_speedup  = 1.0;


// Traffic
traffic = uniform;
packet_size = 20;


// Simulation
sim_type = latency;

injection_rate = .0055;


END Configuration File: ../../IL2236_project/verify/figure7/84/mesh88_lat
Class 0:
Packet latency average = 67.5918
	minimum = 37
	maximum = 127
Network latency average = 64.1044
	minimum = 37
	maximum = 113
Slowest packet = 93
Flit latency average = 29.6786
	minimum = 6
	maximum = 82
Slowest flit = 1874
Fragmentation average = 17.6994
	minimum = 12
	maximum = 47
Injected packet rate average = 0.00521875
	minimum = 0.001 (at node 5)
	maximum = 0.011 (at node 50)
Accepted packet rate average = 0.0049375
	minimum = 0 (at node 29)
	maximum = 0.011 (at node 18)
Injected flit rate average = 0.102734
	minimum = 0.02 (at node 5)
	maximum = 0.22 (at node 50)
Accepted flit rate average= 0.100109
	minimum = 0 (at node 29)
	maximum = 0.22 (at node 18)
Injected packet length average = 19.6856
Accepted packet length average = 20.2753
Total in-flight flits = 273 (0 measured)
latency change    = 1
throughput change = 1
Class 0:
Packet latency average = 67.4499
	minimum = 37
	maximum = 132
Network latency average = 63.5485
	minimum = 37
	maximum = 113
Slowest packet = 93
Flit latency average = 29.4776
	minimum = 6
	maximum = 82
Slowest flit = 1874
Fragmentation average = 16.9153
	minimum = 12
	maximum = 54
Injected packet rate average = 0.00527344
	minimum = 0.002 (at node 13)
	maximum = 0.01 (at node 50)
Accepted packet rate average = 0.00507031
	minimum = 0.0025 (at node 11)
	maximum = 0.009 (at node 12)
Injected flit rate average = 0.104148
	minimum = 0.04 (at node 13)
	maximum = 0.1955 (at node 50)
Accepted flit rate average= 0.102523
	minimum = 0.05 (at node 11)
	maximum = 0.18 (at node 12)
Injected packet length average = 19.7496
Accepted packet length average = 20.2203
Total in-flight flits = 377 (0 measured)
latency change    = 0.00210303
throughput change = 0.0235464
Class 0:
Packet latency average = 66.6147
	minimum = 37
	maximum = 123
Network latency average = 62.6997
	minimum = 37
	maximum = 123
Slowest packet = 655
Flit latency average = 28.6448
	minimum = 6
	maximum = 89
Slowest flit = 17929
Fragmentation average = 17.0283
	minimum = 12
	maximum = 68
Injected packet rate average = 0.00551562
	minimum = 0.002 (at node 4)
	maximum = 0.012 (at node 55)
Accepted packet rate average = 0.00551562
	minimum = 0.001 (at node 16)
	maximum = 0.01 (at node 26)
Injected flit rate average = 0.110797
	minimum = 0.032 (at node 4)
	maximum = 0.224 (at node 55)
Accepted flit rate average= 0.110641
	minimum = 0.02 (at node 16)
	maximum = 0.2 (at node 38)
Injected packet length average = 20.0878
Accepted packet length average = 20.0595
Total in-flight flits = 356 (0 measured)
latency change    = 0.0125376
throughput change = 0.0733653
Warmed up ...Time used is 3000 cycles
Class 0:
Packet latency average = 70.3322
	minimum = 37
	maximum = 158
Network latency average = 65.8925
	minimum = 37
	maximum = 146
Slowest packet = 1130
Flit latency average = 30.7918
	minimum = 6
	maximum = 112
Slowest flit = 25759
Fragmentation average = 19.0521
	minimum = 12
	maximum = 89
Injected packet rate average = 0.0051875
	minimum = 0.001 (at node 0)
	maximum = 0.011 (at node 31)
Accepted packet rate average = 0.00520313
	minimum = 0.001 (at node 23)
	maximum = 0.011 (at node 39)
Injected flit rate average = 0.104047
	minimum = 0.008 (at node 39)
	maximum = 0.22 (at node 31)
Accepted flit rate average= 0.104594
	minimum = 0.025 (at node 10)
	maximum = 0.22 (at node 39)
Injected packet length average = 20.0572
Accepted packet length average = 20.1021
Total in-flight flits = 302 (302 measured)
latency change    = 0.0528565
throughput change = 0.057813
Class 0:
Packet latency average = 68.9905
	minimum = 37
	maximum = 158
Network latency average = 65.0111
	minimum = 37
	maximum = 146
Slowest packet = 1130
Flit latency average = 30.0803
	minimum = 6
	maximum = 112
Slowest flit = 25759
Fragmentation average = 18.6487
	minimum = 12
	maximum = 89
Injected packet rate average = 0.00510938
	minimum = 0.0015 (at node 48)
	maximum = 0.0085 (at node 8)
Accepted packet rate average = 0.00514063
	minimum = 0.0025 (at node 1)
	maximum = 0.009 (at node 49)
Injected flit rate average = 0.102422
	minimum = 0.03 (at node 48)
	maximum = 0.17 (at node 51)
Accepted flit rate average= 0.1025
	minimum = 0.0405 (at node 32)
	maximum = 0.1855 (at node 49)
Injected packet length average = 20.0459
Accepted packet length average = 19.9392
Total in-flight flits = 316 (316 measured)
latency change    = 0.0194482
throughput change = 0.0204268
Class 0:
Packet latency average = 69.5932
	minimum = 37
	maximum = 173
Network latency average = 65.6729
	minimum = 37
	maximum = 146
Slowest packet = 1130
Flit latency average = 30.5815
	minimum = 6
	maximum = 112
Slowest flit = 25759
Fragmentation average = 18.8675
	minimum = 12
	maximum = 89
Injected packet rate average = 0.00513542
	minimum = 0.00166667 (at node 48)
	maximum = 0.00766667 (at node 57)
Accepted packet rate average = 0.00516667
	minimum = 0.003 (at node 21)
	maximum = 0.00833333 (at node 40)
Injected flit rate average = 0.102891
	minimum = 0.0333333 (at node 48)
	maximum = 0.153333 (at node 57)
Accepted flit rate average= 0.10313
	minimum = 0.06 (at node 29)
	maximum = 0.167 (at node 40)
Injected packet length average = 20.0355
Accepted packet length average = 19.9607
Total in-flight flits = 275 (275 measured)
latency change    = 0.00865978
throughput change = 0.0061108
Class 0:
Packet latency average = 69.7719
	minimum = 37
	maximum = 173
Network latency average = 65.6495
	minimum = 37
	maximum = 146
Slowest packet = 1130
Flit latency average = 30.5004
	minimum = 6
	maximum = 112
Slowest flit = 25759
Fragmentation average = 18.8527
	minimum = 12
	maximum = 89
Injected packet rate average = 0.00525781
	minimum = 0.003 (at node 48)
	maximum = 0.0075 (at node 57)
Accepted packet rate average = 0.00527344
	minimum = 0.003 (at node 53)
	maximum = 0.008 (at node 47)
Injected flit rate average = 0.105145
	minimum = 0.06 (at node 48)
	maximum = 0.1465 (at node 57)
Accepted flit rate average= 0.105219
	minimum = 0.0635 (at node 53)
	maximum = 0.1605 (at node 47)
Injected packet length average = 19.9978
Accepted packet length average = 19.9526
Total in-flight flits = 340 (340 measured)
latency change    = 0.00256171
throughput change = 0.0198495
Draining all recorded packets ...
Draining remaining packets ...
Time taken is 7145 cycles
====== Overall Traffic Statistics ======
====== Traffic class 0 ======
Packet latency average = 69.7847 (1 samples)
	minimum = 37 (1 samples)
	maximum = 173 (1 samples)
Network latency average = 65.6548 (1 samples)
	minimum = 37 (1 samples)
	maximum = 146 (1 samples)
Flit latency average = 30.4695 (1 samples)
	minimum = 6 (1 samples)
	maximum = 112 (1 samples)
Fragmentation average = 18.8315 (1 samples)
	minimum = 12 (1 samples)
	maximum = 89 (1 samples)
Injected packet rate average = 0.00525781 (1 samples)
	minimum = 0.003 (1 samples)
	maximum = 0.0075 (1 samples)
Accepted packet rate average = 0.00527344 (1 samples)
	minimum = 0.003 (1 samples)
	maximum = 0.008 (1 samples)
Injected flit rate average = 0.105145 (1 samples)
	minimum = 0.06 (1 samples)
	maximum = 0.1465 (1 samples)
Accepted flit rate average = 0.105219 (1 samples)
	minimum = 0.0635 (1 samples)
	maximum = 0.1605 (1 samples)
Injected packet size average = 19.9978 (1 samples)
Accepted packet size average = 19.9526 (1 samples)
Hops average = 6.415 (1 samples)
Total run time 2.15762
