BEGIN Configuration File: ../../IL2236_project/verify/figure7/84/mesh88_lat
// $Id$

// Copyright (c) 2007-2015, Trustees of The Leland Stanford Junior University
// All rights reserved.
//
// Redistribution and use in source and binary forms, with or without
// modification, are permitted provided that the following conditions are met:
//
// Redistributions of source code must retain the above copyright notice, this
// list of conditions and the following disclaimer.
// Redistributions in binary form must reproduce the above copyright notice,
// this list of conditions and the following disclaimer in the documentation
// and/or other materials provided with the distribution.
//
// THIS SOFTWARE IS PROVIDED BY THE COPYRIGHT HOLDERS AND CONTRIBUTORS "AS IS"
// AND ANY EXPRESS OR IMPLIED WARRANTIES, INCLUDING, BUT NOT LIMITED TO, THE
// IMPLIED WARRANTIES OF MERCHANTABILITY AND FITNESS FOR A PARTICULAR PURPOSE
// ARE DISCLAIMED. IN NO EVENT SHALL THE COPYRIGHT OWNER OR CONTRIBUTORS BE
// LIABLE FOR ANY DIRECT, INDIRECT, INCIDENTAL, SPECIAL, EXEMPLARY, OR
// CONSEQUENTIAL DAMAGES (INCLUDING, BUT NOT LIMITED TO, PROCUREMENT OF
// SUBSTITUTE GOODS OR SERVICES; LOSS OF USE, DATA, OR PROFITS; OR BUSINESS
// INTERRUPTION) HOWEVER CAUSED AND ON ANY THEORY OF LIABILITY, WHETHER IN
// CONTRACT, STRICT LIABILITY, OR TORT (INCLUDING NEGLIGENCE OR OTHERWISE)
// ARISING IN ANY WAY OUT OF THE USE OF THIS SOFTWARE, EVEN IF ADVISED OF THE
// POSSIBILITY OF SUCH DAMAGE.

//8X8 mesh with 20 flits per packet under injection mode
//injection rate here is packet per cycle, NOT flit per cycle

// Topology

topology = mesh;
k = 8;
n = 2;

// Routing
routing_function = dor;

// Flow control
num_vcs     = 8;
vc_buf_size = 4;
wait_for_tail_credit = 1;

// Router architecture
vc_allocator = islip;
sw_allocator = islip;
alloc_iters  = 1;

credit_delay   = 2;
routing_delay  = 0;
vc_alloc_delay = 1;
sw_alloc_delay = 1;

input_speedup     = 2;
output_speedup    = 1;
internal_speedup  = 1.0;


// Traffic
traffic = uniform;
packet_size = 20;


// Simulation
sim_type = latency;

injection_rate = .0085;


END Configuration File: ../../IL2236_project/verify/figure7/84/mesh88_lat
Class 0:
Packet latency average = 77.0487
	minimum = 37
	maximum = 192
Network latency average = 69.1136
	minimum = 37
	maximum = 166
Slowest packet = 32
Flit latency average = 31.3955
	minimum = 6
	maximum = 133
Slowest flit = 4479
Fragmentation average = 22.6633
	minimum = 12
	maximum = 101
Injected packet rate average = 0.00820313
	minimum = 0.002 (at node 11)
	maximum = 0.015 (at node 48)
Accepted packet rate average = 0.00770312
	minimum = 0.002 (at node 37)
	maximum = 0.014 (at node 12)
Injected flit rate average = 0.161406
	minimum = 0.023 (at node 11)
	maximum = 0.3 (at node 48)
Accepted flit rate average= 0.1565
	minimum = 0.052 (at node 37)
	maximum = 0.28 (at node 12)
Injected packet length average = 19.6762
Accepted packet length average = 20.3164
Total in-flight flits = 484 (0 measured)
latency change    = 1
throughput change = 1
Class 0:
Packet latency average = 77.1193
	minimum = 37
	maximum = 192
Network latency average = 69.2604
	minimum = 37
	maximum = 166
Slowest packet = 32
Flit latency average = 31.5403
	minimum = 6
	maximum = 133
Slowest flit = 4479
Fragmentation average = 22.6755
	minimum = 12
	maximum = 101
Injected packet rate average = 0.00825781
	minimum = 0.0035 (at node 44)
	maximum = 0.012 (at node 10)
Accepted packet rate average = 0.00792188
	minimum = 0.0035 (at node 54)
	maximum = 0.0125 (at node 12)
Injected flit rate average = 0.163852
	minimum = 0.064 (at node 44)
	maximum = 0.24 (at node 10)
Accepted flit rate average= 0.160602
	minimum = 0.07 (at node 54)
	maximum = 0.25 (at node 12)
Injected packet length average = 19.842
Accepted packet length average = 20.2732
Total in-flight flits = 583 (0 measured)
latency change    = 0.000916085
throughput change = 0.0255387
Class 0:
Packet latency average = 82.4331
	minimum = 37
	maximum = 259
Network latency average = 72.0739
	minimum = 37
	maximum = 229
Slowest packet = 1091
Flit latency average = 32.5722
	minimum = 6
	maximum = 190
Slowest flit = 21839
Fragmentation average = 25.4877
	minimum = 12
	maximum = 167
Injected packet rate average = 0.00873438
	minimum = 0.004 (at node 6)
	maximum = 0.014 (at node 14)
Accepted packet rate average = 0.008875
	minimum = 0.002 (at node 19)
	maximum = 0.017 (at node 39)
Injected flit rate average = 0.174219
	minimum = 0.072 (at node 24)
	maximum = 0.288 (at node 14)
Accepted flit rate average= 0.175891
	minimum = 0.04 (at node 19)
	maximum = 0.34 (at node 39)
Injected packet length average = 19.9463
Accepted packet length average = 19.8187
Total in-flight flits = 506 (0 measured)
latency change    = 0.0644616
throughput change = 0.0869237
Warmed up ...Time used is 3000 cycles
Class 0:
Packet latency average = 77.0102
	minimum = 37
	maximum = 204
Network latency average = 69.2729
	minimum = 37
	maximum = 132
Slowest packet = 1618
Flit latency average = 31.2802
	minimum = 6
	maximum = 94
Slowest flit = 33179
Fragmentation average = 23.336
	minimum = 12
	maximum = 83
Injected packet rate average = 0.0083125
	minimum = 0.002 (at node 33)
	maximum = 0.014 (at node 19)
Accepted packet rate average = 0.00820313
	minimum = 0.001 (at node 48)
	maximum = 0.016 (at node 47)
Injected flit rate average = 0.166531
	minimum = 0.04 (at node 33)
	maximum = 0.295 (at node 19)
Accepted flit rate average= 0.165625
	minimum = 0.045 (at node 48)
	maximum = 0.335 (at node 47)
Injected packet length average = 20.0338
Accepted packet length average = 20.1905
Total in-flight flits = 546 (546 measured)
latency change    = 0.0704182
throughput change = 0.0619811
Class 0:
Packet latency average = 75.1541
	minimum = 37
	maximum = 222
Network latency average = 68.334
	minimum = 37
	maximum = 135
Slowest packet = 1618
Flit latency average = 31.0825
	minimum = 6
	maximum = 104
Slowest flit = 42191
Fragmentation average = 22.0805
	minimum = 12
	maximum = 83
Injected packet rate average = 0.00815625
	minimum = 0.005 (at node 13)
	maximum = 0.012 (at node 51)
Accepted packet rate average = 0.008125
	minimum = 0.0035 (at node 52)
	maximum = 0.0135 (at node 47)
Injected flit rate average = 0.163383
	minimum = 0.1 (at node 18)
	maximum = 0.24 (at node 51)
Accepted flit rate average= 0.163203
	minimum = 0.07 (at node 52)
	maximum = 0.27 (at node 47)
Injected packet length average = 20.0316
Accepted packet length average = 20.0865
Total in-flight flits = 496 (496 measured)
latency change    = 0.0246974
throughput change = 0.0148396
Class 0:
Packet latency average = 75.8337
	minimum = 37
	maximum = 261
Network latency average = 68.8178
	minimum = 37
	maximum = 190
Slowest packet = 1618
Flit latency average = 31.3993
	minimum = 6
	maximum = 152
Slowest flit = 53859
Fragmentation average = 22.4964
	minimum = 12
	maximum = 132
Injected packet rate average = 0.00807292
	minimum = 0.00533333 (at node 47)
	maximum = 0.0113333 (at node 4)
Accepted packet rate average = 0.00803646
	minimum = 0.00433333 (at node 52)
	maximum = 0.011 (at node 22)
Injected flit rate average = 0.161599
	minimum = 0.106667 (at node 47)
	maximum = 0.225333 (at node 19)
Accepted flit rate average= 0.161458
	minimum = 0.0916667 (at node 52)
	maximum = 0.224333 (at node 22)
Injected packet length average = 20.0174
Accepted packet length average = 20.0907
Total in-flight flits = 506 (506 measured)
latency change    = 0.00896158
throughput change = 0.0108065
Class 0:
Packet latency average = 77.0958
	minimum = 37
	maximum = 261
Network latency average = 69.2991
	minimum = 37
	maximum = 190
Slowest packet = 1618
Flit latency average = 31.534
	minimum = 6
	maximum = 152
Slowest flit = 53859
Fragmentation average = 22.8171
	minimum = 12
	maximum = 132
Injected packet rate average = 0.00817188
	minimum = 0.0055 (at node 28)
	maximum = 0.01075 (at node 29)
Accepted packet rate average = 0.00816406
	minimum = 0.00525 (at node 15)
	maximum = 0.01125 (at node 16)
Injected flit rate average = 0.163391
	minimum = 0.11 (at node 28)
	maximum = 0.21275 (at node 29)
Accepted flit rate average= 0.163438
	minimum = 0.10375 (at node 15)
	maximum = 0.225 (at node 16)
Injected packet length average = 19.9943
Accepted packet length average = 20.0191
Total in-flight flits = 506 (506 measured)
latency change    = 0.0163712
throughput change = 0.0121096
Draining all recorded packets ...
Draining remaining packets ...
Time taken is 7260 cycles
====== Overall Traffic Statistics ======
====== Traffic class 0 ======
Packet latency average = 77.6652 (1 samples)
	minimum = 37 (1 samples)
	maximum = 333 (1 samples)
Network latency average = 69.3577 (1 samples)
	minimum = 37 (1 samples)
	maximum = 190 (1 samples)
Flit latency average = 31.5838 (1 samples)
	minimum = 6 (1 samples)
	maximum = 152 (1 samples)
Fragmentation average = 22.8503 (1 samples)
	minimum = 12 (1 samples)
	maximum = 132 (1 samples)
Injected packet rate average = 0.00817188 (1 samples)
	minimum = 0.0055 (1 samples)
	maximum = 0.01075 (1 samples)
Accepted packet rate average = 0.00816406 (1 samples)
	minimum = 0.00525 (1 samples)
	maximum = 0.01125 (1 samples)
Injected flit rate average = 0.163391 (1 samples)
	minimum = 0.11 (1 samples)
	maximum = 0.21275 (1 samples)
Accepted flit rate average = 0.163438 (1 samples)
	minimum = 0.10375 (1 samples)
	maximum = 0.225 (1 samples)
Injected packet size average = 19.9943 (1 samples)
Accepted packet size average = 20.0191 (1 samples)
Hops average = 6.30424 (1 samples)
Total run time 3.01474
