BEGIN Configuration File: ../../IL2236_project/verify/figure7/84/mesh88_lat
// $Id$

// Copyright (c) 2007-2015, Trustees of The Leland Stanford Junior University
// All rights reserved.
//
// Redistribution and use in source and binary forms, with or without
// modification, are permitted provided that the following conditions are met:
//
// Redistributions of source code must retain the above copyright notice, this
// list of conditions and the following disclaimer.
// Redistributions in binary form must reproduce the above copyright notice,
// this list of conditions and the following disclaimer in the documentation
// and/or other materials provided with the distribution.
//
// THIS SOFTWARE IS PROVIDED BY THE COPYRIGHT HOLDERS AND CONTRIBUTORS "AS IS"
// AND ANY EXPRESS OR IMPLIED WARRANTIES, INCLUDING, BUT NOT LIMITED TO, THE
// IMPLIED WARRANTIES OF MERCHANTABILITY AND FITNESS FOR A PARTICULAR PURPOSE
// ARE DISCLAIMED. IN NO EVENT SHALL THE COPYRIGHT OWNER OR CONTRIBUTORS BE
// LIABLE FOR ANY DIRECT, INDIRECT, INCIDENTAL, SPECIAL, EXEMPLARY, OR
// CONSEQUENTIAL DAMAGES (INCLUDING, BUT NOT LIMITED TO, PROCUREMENT OF
// SUBSTITUTE GOODS OR SERVICES; LOSS OF USE, DATA, OR PROFITS; OR BUSINESS
// INTERRUPTION) HOWEVER CAUSED AND ON ANY THEORY OF LIABILITY, WHETHER IN
// CONTRACT, STRICT LIABILITY, OR TORT (INCLUDING NEGLIGENCE OR OTHERWISE)
// ARISING IN ANY WAY OUT OF THE USE OF THIS SOFTWARE, EVEN IF ADVISED OF THE
// POSSIBILITY OF SUCH DAMAGE.

//8X8 mesh with 20 flits per packet under injection mode
//injection rate here is packet per cycle, NOT flit per cycle

// Topology

topology = mesh;
k = 8;
n = 2;

// Routing
routing_function = dor;

// Flow control
num_vcs     = 8;
vc_buf_size = 4;
wait_for_tail_credit = 1;

// Router architecture
vc_allocator = islip;
sw_allocator = islip;
alloc_iters  = 1;

credit_delay   = 2;
routing_delay  = 0;
vc_alloc_delay = 1;
sw_alloc_delay = 1;

input_speedup     = 2;
output_speedup    = 1;
internal_speedup  = 1.0;


// Traffic
traffic = uniform;
packet_size = 20;


// Simulation
sim_type = latency;

injection_rate = .0130;


END Configuration File: ../../IL2236_project/verify/figure7/84/mesh88_lat
Class 0:
Packet latency average = 100.053
	minimum = 37
	maximum = 347
Network latency average = 78.8871
	minimum = 37
	maximum = 186
Slowest packet = 22
Flit latency average = 35.2557
	minimum = 6
	maximum = 151
Slowest flit = 7859
Fragmentation average = 32.0252
	minimum = 12
	maximum = 130
Injected packet rate average = 0.0126406
	minimum = 0.007 (at node 56)
	maximum = 0.022 (at node 7)
Accepted packet rate average = 0.0117656
	minimum = 0.006 (at node 11)
	maximum = 0.02 (at node 12)
Injected flit rate average = 0.247766
	minimum = 0.14 (at node 56)
	maximum = 0.424 (at node 7)
Accepted flit rate average= 0.240047
	minimum = 0.12 (at node 54)
	maximum = 0.409 (at node 12)
Injected packet length average = 19.6007
Accepted packet length average = 20.4024
Total in-flight flits = 817 (0 measured)
latency change    = 1
throughput change = 1
Class 0:
Packet latency average = 104.706
	minimum = 37
	maximum = 347
Network latency average = 82.7157
	minimum = 37
	maximum = 270
Slowest packet = 22
Flit latency average = 37.347
	minimum = 6
	maximum = 234
Slowest flit = 26359
Fragmentation average = 35.1549
	minimum = 12
	maximum = 193
Injected packet rate average = 0.0127969
	minimum = 0.0085 (at node 12)
	maximum = 0.02 (at node 3)
Accepted packet rate average = 0.0122031
	minimum = 0.008 (at node 29)
	maximum = 0.0185 (at node 27)
Injected flit rate average = 0.253531
	minimum = 0.167 (at node 12)
	maximum = 0.3935 (at node 3)
Accepted flit rate average= 0.248094
	minimum = 0.16 (at node 29)
	maximum = 0.3775 (at node 27)
Injected packet length average = 19.812
Accepted packet length average = 20.3303
Total in-flight flits = 1004 (0 measured)
latency change    = 0.0444389
throughput change = 0.0324348
Class 0:
Packet latency average = 114.141
	minimum = 37
	maximum = 324
Network latency average = 84.382
	minimum = 37
	maximum = 195
Slowest packet = 1591
Flit latency average = 37.584
	minimum = 6
	maximum = 155
Slowest flit = 43598
Fragmentation average = 37.1495
	minimum = 12
	maximum = 133
Injected packet rate average = 0.0132812
	minimum = 0.003 (at node 32)
	maximum = 0.021 (at node 36)
Accepted packet rate average = 0.013375
	minimum = 0.006 (at node 52)
	maximum = 0.023 (at node 47)
Injected flit rate average = 0.265625
	minimum = 0.06 (at node 32)
	maximum = 0.428 (at node 36)
Accepted flit rate average= 0.266062
	minimum = 0.12 (at node 52)
	maximum = 0.463 (at node 47)
Injected packet length average = 20
Accepted packet length average = 19.8925
Total in-flight flits = 976 (0 measured)
latency change    = 0.0826625
throughput change = 0.0675358
Warmed up ...Time used is 3000 cycles
Class 0:
Packet latency average = 113.547
	minimum = 41
	maximum = 422
Network latency average = 86.4128
	minimum = 37
	maximum = 338
Slowest packet = 2502
Flit latency average = 39.4238
	minimum = 6
	maximum = 263
Slowest flit = 54499
Fragmentation average = 38.6719
	minimum = 12
	maximum = 217
Injected packet rate average = 0.0130625
	minimum = 0.005 (at node 3)
	maximum = 0.019 (at node 21)
Accepted packet rate average = 0.0130937
	minimum = 0.005 (at node 36)
	maximum = 0.026 (at node 22)
Injected flit rate average = 0.261031
	minimum = 0.096 (at node 3)
	maximum = 0.392 (at node 21)
Accepted flit rate average= 0.261703
	minimum = 0.1 (at node 36)
	maximum = 0.517 (at node 22)
Injected packet length average = 19.9833
Accepted packet length average = 19.9869
Total in-flight flits = 947 (947 measured)
latency change    = 0.00523555
throughput change = 0.0166577
Class 0:
Packet latency average = 108.752
	minimum = 37
	maximum = 422
Network latency average = 83.3525
	minimum = 37
	maximum = 338
Slowest packet = 2502
Flit latency average = 37.9257
	minimum = 6
	maximum = 263
Slowest flit = 54499
Fragmentation average = 36.0845
	minimum = 12
	maximum = 217
Injected packet rate average = 0.0127422
	minimum = 0.006 (at node 3)
	maximum = 0.0195 (at node 56)
Accepted packet rate average = 0.0127578
	minimum = 0.0065 (at node 23)
	maximum = 0.0205 (at node 22)
Injected flit rate average = 0.255625
	minimum = 0.124 (at node 3)
	maximum = 0.389 (at node 56)
Accepted flit rate average= 0.255891
	minimum = 0.1295 (at node 23)
	maximum = 0.407 (at node 22)
Injected packet length average = 20.0613
Accepted packet length average = 20.0576
Total in-flight flits = 842 (842 measured)
latency change    = 0.0440923
throughput change = 0.0227148
Class 0:
Packet latency average = 111.107
	minimum = 37
	maximum = 422
Network latency average = 83.5572
	minimum = 37
	maximum = 338
Slowest packet = 2502
Flit latency average = 37.9274
	minimum = 6
	maximum = 263
Slowest flit = 54499
Fragmentation average = 36.0908
	minimum = 12
	maximum = 217
Injected packet rate average = 0.0126615
	minimum = 0.00666667 (at node 3)
	maximum = 0.0193333 (at node 56)
Accepted packet rate average = 0.0127031
	minimum = 0.00866667 (at node 30)
	maximum = 0.017 (at node 22)
Injected flit rate average = 0.253104
	minimum = 0.132 (at node 3)
	maximum = 0.386667 (at node 56)
Accepted flit rate average= 0.25399
	minimum = 0.173333 (at node 30)
	maximum = 0.34 (at node 34)
Injected packet length average = 19.9901
Accepted packet length average = 19.9943
Total in-flight flits = 830 (830 measured)
latency change    = 0.0211999
throughput change = 0.00748472
Draining all recorded packets ...
Draining remaining packets ...
Time taken is 6373 cycles
====== Overall Traffic Statistics ======
====== Traffic class 0 ======
Packet latency average = 111.91 (1 samples)
	minimum = 37 (1 samples)
	maximum = 422 (1 samples)
Network latency average = 83.8666 (1 samples)
	minimum = 37 (1 samples)
	maximum = 338 (1 samples)
Flit latency average = 38.0844 (1 samples)
	minimum = 6 (1 samples)
	maximum = 263 (1 samples)
Fragmentation average = 36.3758 (1 samples)
	minimum = 12 (1 samples)
	maximum = 217 (1 samples)
Injected packet rate average = 0.0126615 (1 samples)
	minimum = 0.00666667 (1 samples)
	maximum = 0.0193333 (1 samples)
Accepted packet rate average = 0.0127031 (1 samples)
	minimum = 0.00866667 (1 samples)
	maximum = 0.017 (1 samples)
Injected flit rate average = 0.253104 (1 samples)
	minimum = 0.132 (1 samples)
	maximum = 0.386667 (1 samples)
Accepted flit rate average = 0.25399 (1 samples)
	minimum = 0.173333 (1 samples)
	maximum = 0.34 (1 samples)
Injected packet size average = 19.9901 (1 samples)
Accepted packet size average = 19.9943 (1 samples)
Hops average = 6.29335 (1 samples)
Total run time 3.63737
