BEGIN Configuration File: ../../IL2236_project/verify/figure7/84/mesh88_lat
// $Id$

// Copyright (c) 2007-2015, Trustees of The Leland Stanford Junior University
// All rights reserved.
//
// Redistribution and use in source and binary forms, with or without
// modification, are permitted provided that the following conditions are met:
//
// Redistributions of source code must retain the above copyright notice, this
// list of conditions and the following disclaimer.
// Redistributions in binary form must reproduce the above copyright notice,
// this list of conditions and the following disclaimer in the documentation
// and/or other materials provided with the distribution.
//
// THIS SOFTWARE IS PROVIDED BY THE COPYRIGHT HOLDERS AND CONTRIBUTORS "AS IS"
// AND ANY EXPRESS OR IMPLIED WARRANTIES, INCLUDING, BUT NOT LIMITED TO, THE
// IMPLIED WARRANTIES OF MERCHANTABILITY AND FITNESS FOR A PARTICULAR PURPOSE
// ARE DISCLAIMED. IN NO EVENT SHALL THE COPYRIGHT OWNER OR CONTRIBUTORS BE
// LIABLE FOR ANY DIRECT, INDIRECT, INCIDENTAL, SPECIAL, EXEMPLARY, OR
// CONSEQUENTIAL DAMAGES (INCLUDING, BUT NOT LIMITED TO, PROCUREMENT OF
// SUBSTITUTE GOODS OR SERVICES; LOSS OF USE, DATA, OR PROFITS; OR BUSINESS
// INTERRUPTION) HOWEVER CAUSED AND ON ANY THEORY OF LIABILITY, WHETHER IN
// CONTRACT, STRICT LIABILITY, OR TORT (INCLUDING NEGLIGENCE OR OTHERWISE)
// ARISING IN ANY WAY OUT OF THE USE OF THIS SOFTWARE, EVEN IF ADVISED OF THE
// POSSIBILITY OF SUCH DAMAGE.

//8X8 mesh with 20 flits per packet under injection mode
//injection rate here is packet per cycle, NOT flit per cycle

// Topology

topology = mesh;
k = 8;
n = 2;

// Routing
routing_function = dor;

// Flow control
num_vcs     = 8;
vc_buf_size = 4;
wait_for_tail_credit = 1;

// Router architecture
vc_allocator = islip;
sw_allocator = islip;
alloc_iters  = 1;

credit_delay   = 2;
routing_delay  = 0;
vc_alloc_delay = 1;
sw_alloc_delay = 1;

input_speedup     = 2;
output_speedup    = 1;
internal_speedup  = 1.0;


// Traffic
traffic = uniform;
packet_size = 20;


// Simulation
sim_type = latency;

injection_rate = .0135;


END Configuration File: ../../IL2236_project/verify/figure7/84/mesh88_lat
Class 0:
Packet latency average = 104.274
	minimum = 37
	maximum = 433
Network latency average = 81.0669
	minimum = 37
	maximum = 201
Slowest packet = 57
Flit latency average = 36.1865
	minimum = 6
	maximum = 163
Slowest flit = 1159
Fragmentation average = 34.3719
	minimum = 12
	maximum = 137
Injected packet rate average = 0.0131562
	minimum = 0.008 (at node 8)
	maximum = 0.021 (at node 48)
Accepted packet rate average = 0.0121406
	minimum = 0.006 (at node 54)
	maximum = 0.02 (at node 12)
Injected flit rate average = 0.258313
	minimum = 0.147 (at node 8)
	maximum = 0.416 (at node 48)
Accepted flit rate average= 0.249188
	minimum = 0.12 (at node 54)
	maximum = 0.418 (at node 12)
Injected packet length average = 19.6342
Accepted packet length average = 20.5251
Total in-flight flits = 892 (0 measured)
latency change    = 1
throughput change = 1
Class 0:
Packet latency average = 105.51
	minimum = 37
	maximum = 433
Network latency average = 82.0381
	minimum = 37
	maximum = 217
Slowest packet = 57
Flit latency average = 36.7056
	minimum = 6
	maximum = 166
Slowest flit = 26099
Fragmentation average = 35.277
	minimum = 12
	maximum = 157
Injected packet rate average = 0.0133125
	minimum = 0.0075 (at node 8)
	maximum = 0.0205 (at node 17)
Accepted packet rate average = 0.0127187
	minimum = 0.008 (at node 29)
	maximum = 0.019 (at node 27)
Injected flit rate average = 0.263844
	minimum = 0.15 (at node 8)
	maximum = 0.406 (at node 17)
Accepted flit rate average= 0.258258
	minimum = 0.1665 (at node 29)
	maximum = 0.38 (at node 27)
Injected packet length average = 19.8192
Accepted packet length average = 20.3053
Total in-flight flits = 1023 (0 measured)
latency change    = 0.0117117
throughput change = 0.0351212
Class 0:
Packet latency average = 112.985
	minimum = 37
	maximum = 359
Network latency average = 83.584
	minimum = 37
	maximum = 177
Slowest packet = 1650
Flit latency average = 37.5017
	minimum = 6
	maximum = 143
Slowest flit = 35559
Fragmentation average = 36.6753
	minimum = 12
	maximum = 122
Injected packet rate average = 0.0136875
	minimum = 0.006 (at node 15)
	maximum = 0.021 (at node 8)
Accepted packet rate average = 0.0138594
	minimum = 0.007 (at node 52)
	maximum = 0.025 (at node 47)
Injected flit rate average = 0.273938
	minimum = 0.116 (at node 15)
	maximum = 0.416 (at node 8)
Accepted flit rate average= 0.275625
	minimum = 0.14 (at node 52)
	maximum = 0.479 (at node 47)
Injected packet length average = 20.0137
Accepted packet length average = 19.8873
Total in-flight flits = 903 (0 measured)
latency change    = 0.0661636
throughput change = 0.0630102
Warmed up ...Time used is 3000 cycles
Class 0:
Packet latency average = 106.872
	minimum = 37
	maximum = 327
Network latency average = 81.8128
	minimum = 37
	maximum = 259
Slowest packet = 2582
Flit latency average = 36.7882
	minimum = 6
	maximum = 215
Slowest flit = 54519
Fragmentation average = 34.8555
	minimum = 12
	maximum = 194
Injected packet rate average = 0.013625
	minimum = 0.006 (at node 0)
	maximum = 0.024 (at node 47)
Accepted packet rate average = 0.0134531
	minimum = 0.005 (at node 36)
	maximum = 0.026 (at node 22)
Injected flit rate average = 0.271766
	minimum = 0.12 (at node 0)
	maximum = 0.464 (at node 47)
Accepted flit rate average= 0.270313
	minimum = 0.1 (at node 36)
	maximum = 0.516 (at node 22)
Injected packet length average = 19.9461
Accepted packet length average = 20.0929
Total in-flight flits = 1043 (1043 measured)
latency change    = 0.0572039
throughput change = 0.0196532
Class 0:
Packet latency average = 106.984
	minimum = 37
	maximum = 343
Network latency average = 83.192
	minimum = 37
	maximum = 289
Slowest packet = 2582
Flit latency average = 37.3474
	minimum = 6
	maximum = 242
Slowest flit = 67497
Fragmentation average = 36.0681
	minimum = 12
	maximum = 220
Injected packet rate average = 0.0132656
	minimum = 0.008 (at node 0)
	maximum = 0.02 (at node 32)
Accepted packet rate average = 0.0132422
	minimum = 0.0065 (at node 23)
	maximum = 0.0205 (at node 22)
Injected flit rate average = 0.265039
	minimum = 0.1525 (at node 0)
	maximum = 0.397 (at node 32)
Accepted flit rate average= 0.264977
	minimum = 0.135 (at node 23)
	maximum = 0.408 (at node 22)
Injected packet length average = 19.9794
Accepted packet length average = 20.01
Total in-flight flits = 946 (946 measured)
latency change    = 0.00104866
throughput change = 0.0201374
Class 0:
Packet latency average = 109.399
	minimum = 37
	maximum = 442
Network latency average = 83.6197
	minimum = 37
	maximum = 289
Slowest packet = 2582
Flit latency average = 37.5163
	minimum = 6
	maximum = 242
Slowest flit = 67497
Fragmentation average = 36.5785
	minimum = 12
	maximum = 220
Injected packet rate average = 0.0132031
	minimum = 0.00866667 (at node 0)
	maximum = 0.0166667 (at node 5)
Accepted packet rate average = 0.0132396
	minimum = 0.009 (at node 10)
	maximum = 0.018 (at node 51)
Injected flit rate average = 0.26387
	minimum = 0.170667 (at node 0)
	maximum = 0.336667 (at node 58)
Accepted flit rate average= 0.264437
	minimum = 0.18 (at node 10)
	maximum = 0.36 (at node 51)
Injected packet length average = 19.9854
Accepted packet length average = 19.9732
Total in-flight flits = 831 (831 measured)
latency change    = 0.0220735
throughput change = 0.00203853
Class 0:
Packet latency average = 109.391
	minimum = 37
	maximum = 442
Network latency average = 82.927
	minimum = 37
	maximum = 289
Slowest packet = 2582
Flit latency average = 37.1906
	minimum = 6
	maximum = 242
Slowest flit = 67497
Fragmentation average = 35.9472
	minimum = 12
	maximum = 220
Injected packet rate average = 0.0132266
	minimum = 0.0095 (at node 13)
	maximum = 0.016 (at node 5)
Accepted packet rate average = 0.013207
	minimum = 0.01025 (at node 10)
	maximum = 0.01725 (at node 55)
Injected flit rate average = 0.264559
	minimum = 0.18675 (at node 13)
	maximum = 0.32325 (at node 58)
Accepted flit rate average= 0.264625
	minimum = 0.205 (at node 10)
	maximum = 0.3425 (at node 55)
Injected packet length average = 20.0021
Accepted packet length average = 20.0367
Total in-flight flits = 879 (879 measured)
latency change    = 7.3473e-05
throughput change = 0.00070855
Draining all recorded packets ...
Draining remaining packets ...
Time taken is 7510 cycles
====== Overall Traffic Statistics ======
====== Traffic class 0 ======
Packet latency average = 110.477 (1 samples)
	minimum = 37 (1 samples)
	maximum = 442 (1 samples)
Network latency average = 83.1093 (1 samples)
	minimum = 37 (1 samples)
	maximum = 289 (1 samples)
Flit latency average = 37.1811 (1 samples)
	minimum = 6 (1 samples)
	maximum = 242 (1 samples)
Fragmentation average = 36.1055 (1 samples)
	minimum = 12 (1 samples)
	maximum = 220 (1 samples)
Injected packet rate average = 0.0132266 (1 samples)
	minimum = 0.0095 (1 samples)
	maximum = 0.016 (1 samples)
Accepted packet rate average = 0.013207 (1 samples)
	minimum = 0.01025 (1 samples)
	maximum = 0.01725 (1 samples)
Injected flit rate average = 0.264559 (1 samples)
	minimum = 0.18675 (1 samples)
	maximum = 0.32325 (1 samples)
Accepted flit rate average = 0.264625 (1 samples)
	minimum = 0.205 (1 samples)
	maximum = 0.3425 (1 samples)
Injected packet size average = 20.0021 (1 samples)
Accepted packet size average = 20.0367 (1 samples)
Hops average = 6.25073 (1 samples)
Total run time 4.44702
