BEGIN Configuration File: ../../IL2236_project/verify/figure7/84/mesh88_lat
// $Id$

// Copyright (c) 2007-2015, Trustees of The Leland Stanford Junior University
// All rights reserved.
//
// Redistribution and use in source and binary forms, with or without
// modification, are permitted provided that the following conditions are met:
//
// Redistributions of source code must retain the above copyright notice, this
// list of conditions and the following disclaimer.
// Redistributions in binary form must reproduce the above copyright notice,
// this list of conditions and the following disclaimer in the documentation
// and/or other materials provided with the distribution.
//
// THIS SOFTWARE IS PROVIDED BY THE COPYRIGHT HOLDERS AND CONTRIBUTORS "AS IS"
// AND ANY EXPRESS OR IMPLIED WARRANTIES, INCLUDING, BUT NOT LIMITED TO, THE
// IMPLIED WARRANTIES OF MERCHANTABILITY AND FITNESS FOR A PARTICULAR PURPOSE
// ARE DISCLAIMED. IN NO EVENT SHALL THE COPYRIGHT OWNER OR CONTRIBUTORS BE
// LIABLE FOR ANY DIRECT, INDIRECT, INCIDENTAL, SPECIAL, EXEMPLARY, OR
// CONSEQUENTIAL DAMAGES (INCLUDING, BUT NOT LIMITED TO, PROCUREMENT OF
// SUBSTITUTE GOODS OR SERVICES; LOSS OF USE, DATA, OR PROFITS; OR BUSINESS
// INTERRUPTION) HOWEVER CAUSED AND ON ANY THEORY OF LIABILITY, WHETHER IN
// CONTRACT, STRICT LIABILITY, OR TORT (INCLUDING NEGLIGENCE OR OTHERWISE)
// ARISING IN ANY WAY OUT OF THE USE OF THIS SOFTWARE, EVEN IF ADVISED OF THE
// POSSIBILITY OF SUCH DAMAGE.

//8X8 mesh with 20 flits per packet under injection mode
//injection rate here is packet per cycle, NOT flit per cycle

// Topology

topology = mesh;
k = 8;
n = 2;

// Routing
routing_function = dor;

// Flow control
num_vcs     = 8;
vc_buf_size = 4;
wait_for_tail_credit = 1;

// Router architecture
vc_allocator = islip;
sw_allocator = islip;
alloc_iters  = 1;

credit_delay   = 2;
routing_delay  = 0;
vc_alloc_delay = 1;
sw_alloc_delay = 1;

input_speedup     = 2;
output_speedup    = 1;
internal_speedup  = 1.0;


// Traffic
traffic = uniform;
packet_size = 20;


// Simulation
sim_type = latency;

injection_rate = .0140;


END Configuration File: ../../IL2236_project/verify/figure7/84/mesh88_lat
Class 0:
Packet latency average = 103.018
	minimum = 37
	maximum = 275
Network latency average = 81.8996
	minimum = 37
	maximum = 197
Slowest packet = 76
Flit latency average = 36.5382
	minimum = 6
	maximum = 154
Slowest flit = 2159
Fragmentation average = 35.005
	minimum = 12
	maximum = 138
Injected packet rate average = 0.0136094
	minimum = 0.005 (at node 14)
	maximum = 0.022 (at node 45)
Accepted packet rate average = 0.0124531
	minimum = 0.006 (at node 54)
	maximum = 0.021 (at node 12)
Injected flit rate average = 0.266406
	minimum = 0.093 (at node 14)
	maximum = 0.439 (at node 45)
Accepted flit rate average= 0.257
	minimum = 0.12 (at node 54)
	maximum = 0.432 (at node 12)
Injected packet length average = 19.5752
Accepted packet length average = 20.6374
Total in-flight flits = 972 (0 measured)
latency change    = 1
throughput change = 1
Class 0:
Packet latency average = 108.963
	minimum = 37
	maximum = 370
Network latency average = 83.1552
	minimum = 37
	maximum = 223
Slowest packet = 76
Flit latency average = 37.1966
	minimum = 6
	maximum = 187
Slowest flit = 17519
Fragmentation average = 36.0743
	minimum = 12
	maximum = 159
Injected packet rate average = 0.0138594
	minimum = 0.007 (at node 43)
	maximum = 0.019 (at node 45)
Accepted packet rate average = 0.0132422
	minimum = 0.0085 (at node 29)
	maximum = 0.019 (at node 27)
Injected flit rate average = 0.274945
	minimum = 0.14 (at node 43)
	maximum = 0.3755 (at node 45)
Accepted flit rate average= 0.269148
	minimum = 0.17 (at node 29)
	maximum = 0.38 (at node 27)
Injected packet length average = 19.8382
Accepted packet length average = 20.3251
Total in-flight flits = 1029 (0 measured)
latency change    = 0.0545623
throughput change = 0.0451366
Class 0:
Packet latency average = 116.547
	minimum = 37
	maximum = 324
Network latency average = 85.9056
	minimum = 37
	maximum = 218
Slowest packet = 1635
Flit latency average = 38.2225
	minimum = 6
	maximum = 179
Slowest flit = 40279
Fragmentation average = 38.4311
	minimum = 12
	maximum = 144
Injected packet rate average = 0.0141406
	minimum = 0.009 (at node 1)
	maximum = 0.02 (at node 3)
Accepted packet rate average = 0.0140625
	minimum = 0.006 (at node 52)
	maximum = 0.022 (at node 47)
Injected flit rate average = 0.281813
	minimum = 0.18 (at node 19)
	maximum = 0.401 (at node 30)
Accepted flit rate average= 0.282203
	minimum = 0.12 (at node 52)
	maximum = 0.457 (at node 47)
Injected packet length average = 19.9293
Accepted packet length average = 20.0678
Total in-flight flits = 1068 (0 measured)
latency change    = 0.0650712
throughput change = 0.0462599
Warmed up ...Time used is 3000 cycles
Class 0:
Packet latency average = 121.689
	minimum = 37
	maximum = 447
Network latency average = 85.08
	minimum = 37
	maximum = 281
Slowest packet = 2681
Flit latency average = 38.4704
	minimum = 6
	maximum = 229
Slowest flit = 62258
Fragmentation average = 37.8954
	minimum = 12
	maximum = 209
Injected packet rate average = 0.0137969
	minimum = 0.005 (at node 33)
	maximum = 0.025 (at node 40)
Accepted packet rate average = 0.0140156
	minimum = 0.005 (at node 36)
	maximum = 0.026 (at node 22)
Injected flit rate average = 0.277016
	minimum = 0.112 (at node 33)
	maximum = 0.489 (at node 40)
Accepted flit rate average= 0.278125
	minimum = 0.114 (at node 36)
	maximum = 0.529 (at node 22)
Injected packet length average = 20.0781
Accepted packet length average = 19.8439
Total in-flight flits = 928 (928 measured)
latency change    = 0.0422565
throughput change = 0.0146629
Class 0:
Packet latency average = 117.126
	minimum = 37
	maximum = 447
Network latency average = 84.9015
	minimum = 37
	maximum = 281
Slowest packet = 2681
Flit latency average = 38.2538
	minimum = 6
	maximum = 229
Slowest flit = 62258
Fragmentation average = 37.6926
	minimum = 12
	maximum = 209
Injected packet rate average = 0.0137188
	minimum = 0.0075 (at node 33)
	maximum = 0.0185 (at node 37)
Accepted packet rate average = 0.0138203
	minimum = 0.0085 (at node 30)
	maximum = 0.0195 (at node 16)
Injected flit rate average = 0.274711
	minimum = 0.156 (at node 33)
	maximum = 0.368 (at node 37)
Accepted flit rate average= 0.275242
	minimum = 0.1685 (at node 30)
	maximum = 0.3965 (at node 22)
Injected packet length average = 20.0245
Accepted packet length average = 19.9158
Total in-flight flits = 957 (957 measured)
latency change    = 0.038958
throughput change = 0.0104737
Class 0:
Packet latency average = 117.641
	minimum = 37
	maximum = 526
Network latency average = 85.1627
	minimum = 37
	maximum = 281
Slowest packet = 2681
Flit latency average = 38.2194
	minimum = 6
	maximum = 229
Slowest flit = 62258
Fragmentation average = 37.8921
	minimum = 12
	maximum = 209
Injected packet rate average = 0.0136562
	minimum = 0.00866667 (at node 42)
	maximum = 0.0183333 (at node 53)
Accepted packet rate average = 0.0137552
	minimum = 0.0103333 (at node 10)
	maximum = 0.0186667 (at node 14)
Injected flit rate average = 0.273323
	minimum = 0.175 (at node 42)
	maximum = 0.365333 (at node 53)
Accepted flit rate average= 0.274328
	minimum = 0.204333 (at node 30)
	maximum = 0.377333 (at node 51)
Injected packet length average = 20.0145
Accepted packet length average = 19.9436
Total in-flight flits = 837 (837 measured)
latency change    = 0.00437917
throughput change = 0.003332
Draining all recorded packets ...
Draining remaining packets ...
Time taken is 6441 cycles
====== Overall Traffic Statistics ======
====== Traffic class 0 ======
Packet latency average = 118.194 (1 samples)
	minimum = 37 (1 samples)
	maximum = 526 (1 samples)
Network latency average = 85.6902 (1 samples)
	minimum = 37 (1 samples)
	maximum = 281 (1 samples)
Flit latency average = 38.7871 (1 samples)
	minimum = 6 (1 samples)
	maximum = 229 (1 samples)
Fragmentation average = 38.2787 (1 samples)
	minimum = 12 (1 samples)
	maximum = 209 (1 samples)
Injected packet rate average = 0.0136562 (1 samples)
	minimum = 0.00866667 (1 samples)
	maximum = 0.0183333 (1 samples)
Accepted packet rate average = 0.0137552 (1 samples)
	minimum = 0.0103333 (1 samples)
	maximum = 0.0186667 (1 samples)
Injected flit rate average = 0.273323 (1 samples)
	minimum = 0.175 (1 samples)
	maximum = 0.365333 (1 samples)
Accepted flit rate average = 0.274328 (1 samples)
	minimum = 0.204333 (1 samples)
	maximum = 0.377333 (1 samples)
Injected packet size average = 20.0145 (1 samples)
Accepted packet size average = 19.9436 (1 samples)
Hops average = 6.27874 (1 samples)
Total run time 3.96213
