BEGIN Configuration File: ../../IL2236_project/verify/figure2/dor/mesh88_lat
// $Id$

// Copyright (c) 2007-2015, Trustees of The Leland Stanford Junior University
// All rights reserved.
//
// Redistribution and use in source and binary forms, with or without
// modification, are permitted provided that the following conditions are met:
//
// Redistributions of source code must retain the above copyright notice, this
// list of conditions and the following disclaimer.
// Redistributions in binary form must reproduce the above copyright notice,
// this list of conditions and the following disclaimer in the documentation
// and/or other materials provided with the distribution.
//
// THIS SOFTWARE IS PROVIDED BY THE COPYRIGHT HOLDERS AND CONTRIBUTORS "AS IS"
// AND ANY EXPRESS OR IMPLIED WARRANTIES, INCLUDING, BUT NOT LIMITED TO, THE
// IMPLIED WARRANTIES OF MERCHANTABILITY AND FITNESS FOR A PARTICULAR PURPOSE
// ARE DISCLAIMED. IN NO EVENT SHALL THE COPYRIGHT OWNER OR CONTRIBUTORS BE
// LIABLE FOR ANY DIRECT, INDIRECT, INCIDENTAL, SPECIAL, EXEMPLARY, OR
// CONSEQUENTIAL DAMAGES (INCLUDING, BUT NOT LIMITED TO, PROCUREMENT OF
// SUBSTITUTE GOODS OR SERVICES; LOSS OF USE, DATA, OR PROFITS; OR BUSINESS
// INTERRUPTION) HOWEVER CAUSED AND ON ANY THEORY OF LIABILITY, WHETHER IN
// CONTRACT, STRICT LIABILITY, OR TORT (INCLUDING NEGLIGENCE OR OTHERWISE)
// ARISING IN ANY WAY OUT OF THE USE OF THIS SOFTWARE, EVEN IF ADVISED OF THE
// POSSIBILITY OF SUCH DAMAGE.

//8X8 mesh with 20 flits per packet under injection mode
//injection rate here is packet per cycle, NOT flit per cycle

// Topology

topology = mesh;
k = 8;
n = 2;

// Routing
routing_function = dor;

// Flow control
num_vcs     = 8;
vc_buf_size = 8;
wait_for_tail_credit = 1;

// Router architecture
vc_allocator = islip;
sw_allocator = islip;
alloc_iters  = 1;

credit_delay   = 2;
routing_delay  = 0;
vc_alloc_delay = 1;
sw_alloc_delay = 1;

input_speedup     = 2;
output_speedup    = 1;
internal_speedup  = 1.0;


// Traffic
traffic = transpose;
packet_size = 20;


// Simulation
sim_type = latency;

injection_rate = .003;


END Configuration File: ../../IL2236_project/verify/figure2/dor/mesh88_lat
Class 0:
Packet latency average = 49.3161
	minimum = 25
	maximum = 132
Network latency average = 48.5632
	minimum = 25
	maximum = 132
Slowest packet = 108
Flit latency average = 26.6246
	minimum = 6
	maximum = 113
Slowest flit = 2179
Fragmentation average = 4.89655
	minimum = 0
	maximum = 57
Injected packet rate average = 0.0028125
	minimum = 0 (at node 12)
	maximum = 0.01 (at node 62)
Accepted packet rate average = 0.00271875
	minimum = 0 (at node 11)
	maximum = 0.01 (at node 55)
Injected flit rate average = 0.0555937
	minimum = 0 (at node 12)
	maximum = 0.2 (at node 62)
Accepted flit rate average= 0.0544844
	minimum = 0 (at node 11)
	maximum = 0.2 (at node 55)
Injected packet length average = 19.7667
Accepted packet length average = 20.0402
Total in-flight flits = 113 (0 measured)
latency change    = 1
throughput change = 1
Class 0:
Packet latency average = 50.6158
	minimum = 25
	maximum = 132
Network latency average = 49.8729
	minimum = 25
	maximum = 132
Slowest packet = 108
Flit latency average = 28.4916
	minimum = 6
	maximum = 113
Slowest flit = 2179
Fragmentation average = 4.11582
	minimum = 0
	maximum = 57
Injected packet rate average = 0.00285937
	minimum = 0.0005 (at node 41)
	maximum = 0.008 (at node 62)
Accepted packet rate average = 0.00276562
	minimum = 0.0005 (at node 13)
	maximum = 0.008 (at node 55)
Injected flit rate average = 0.0568203
	minimum = 0.01 (at node 41)
	maximum = 0.16 (at node 62)
Accepted flit rate average= 0.0555781
	minimum = 0.01 (at node 13)
	maximum = 0.16 (at node 55)
Injected packet length average = 19.8716
Accepted packet length average = 20.096
Total in-flight flits = 206 (0 measured)
latency change    = 0.0256783
throughput change = 0.0196795
Class 0:
Packet latency average = 54
	minimum = 25
	maximum = 124
Network latency average = 53.2667
	minimum = 25
	maximum = 124
Slowest packet = 484
Flit latency average = 31.041
	minimum = 6
	maximum = 105
Slowest flit = 9699
Fragmentation average = 5.17436
	minimum = 0
	maximum = 46
Injected packet rate average = 0.00303125
	minimum = 0 (at node 3)
	maximum = 0.006 (at node 25)
Accepted packet rate average = 0.00304688
	minimum = 0 (at node 4)
	maximum = 0.006 (at node 7)
Injected flit rate average = 0.0610156
	minimum = 0 (at node 3)
	maximum = 0.12 (at node 25)
Accepted flit rate average= 0.0610469
	minimum = 0 (at node 4)
	maximum = 0.12 (at node 7)
Injected packet length average = 20.1289
Accepted packet length average = 20.0359
Total in-flight flits = 179 (0 measured)
latency change    = 0.06267
throughput change = 0.0895828
Warmed up ...Time used is 3000 cycles
Class 0:
Packet latency average = 48.983
	minimum = 25
	maximum = 96
Network latency average = 48.7784
	minimum = 25
	maximum = 96
Slowest packet = 725
Flit latency average = 28.3099
	minimum = 6
	maximum = 77
Slowest flit = 14517
Fragmentation average = 3.83523
	minimum = 0
	maximum = 28
Injected packet rate average = 0.00296875
	minimum = 0 (at node 24)
	maximum = 0.007 (at node 43)
Accepted packet rate average = 0.00292187
	minimum = 0 (at node 5)
	maximum = 0.007 (at node 29)
Injected flit rate average = 0.0593438
	minimum = 0 (at node 24)
	maximum = 0.14 (at node 43)
Accepted flit rate average= 0.0592969
	minimum = 0 (at node 5)
	maximum = 0.14 (at node 29)
Injected packet length average = 19.9895
Accepted packet length average = 20.2941
Total in-flight flits = 184 (184 measured)
latency change    = 0.102424
throughput change = 0.0295125
Class 0:
Packet latency average = 49.4708
	minimum = 25
	maximum = 100
Network latency average = 49.114
	minimum = 25
	maximum = 99
Slowest packet = 874
Flit latency average = 28.243
	minimum = 6
	maximum = 80
Slowest flit = 17499
Fragmentation average = 3.68129
	minimum = 0
	maximum = 28
Injected packet rate average = 0.00275
	minimum = 0.001 (at node 23)
	maximum = 0.005 (at node 43)
Accepted packet rate average = 0.00275781
	minimum = 0.001 (at node 12)
	maximum = 0.006 (at node 31)
Injected flit rate average = 0.0548047
	minimum = 0.02 (at node 23)
	maximum = 0.1095 (at node 59)
Accepted flit rate average= 0.0555
	minimum = 0.02 (at node 12)
	maximum = 0.116 (at node 31)
Injected packet length average = 19.929
Accepted packet length average = 20.1246
Total in-flight flits = 115 (115 measured)
latency change    = 0.00986048
throughput change = 0.0684122
Class 0:
Packet latency average = 52.1645
	minimum = 25
	maximum = 141
Network latency average = 51.3944
	minimum = 25
	maximum = 141
Slowest packet = 918
Flit latency average = 29.3153
	minimum = 6
	maximum = 122
Slowest flit = 18379
Fragmentation average = 5.55514
	minimum = 0
	maximum = 59
Injected packet rate average = 0.00280729
	minimum = 0.001 (at node 33)
	maximum = 0.00566667 (at node 43)
Accepted packet rate average = 0.00284375
	minimum = 0.001 (at node 5)
	maximum = 0.006 (at node 31)
Injected flit rate average = 0.056224
	minimum = 0.02 (at node 33)
	maximum = 0.113333 (at node 43)
Accepted flit rate average= 0.0566615
	minimum = 0.02 (at node 5)
	maximum = 0.117333 (at node 31)
Injected packet length average = 20.0278
Accepted packet length average = 19.9249
Total in-flight flits = 80 (80 measured)
latency change    = 0.0516391
throughput change = 0.0204982
Class 0:
Packet latency average = 53.2779
	minimum = 25
	maximum = 159
Network latency average = 52.53
	minimum = 25
	maximum = 157
Slowest packet = 1169
Flit latency average = 30.1213
	minimum = 6
	maximum = 138
Slowest flit = 23399
Fragmentation average = 6.0436
	minimum = 0
	maximum = 83
Injected packet rate average = 0.00289453
	minimum = 0.00125 (at node 53)
	maximum = 0.00575 (at node 43)
Accepted packet rate average = 0.00291016
	minimum = 0.00125 (at node 46)
	maximum = 0.00575 (at node 29)
Injected flit rate average = 0.0578008
	minimum = 0.025 (at node 53)
	maximum = 0.115 (at node 43)
Accepted flit rate average= 0.0581406
	minimum = 0.025 (at node 46)
	maximum = 0.115 (at node 29)
Injected packet length average = 19.969
Accepted packet length average = 19.9785
Total in-flight flits = 115 (115 measured)
latency change    = 0.0208988
throughput change = 0.0254412
Class 0:
Packet latency average = 52.2603
	minimum = 25
	maximum = 159
Network latency average = 51.4751
	minimum = 25
	maximum = 157
Slowest packet = 1169
Flit latency average = 29.4018
	minimum = 6
	maximum = 138
Slowest flit = 23399
Fragmentation average = 5.43601
	minimum = 0
	maximum = 83
Injected packet rate average = 0.0029125
	minimum = 0.0016 (at node 53)
	maximum = 0.0046 (at node 43)
Accepted packet rate average = 0.00291562
	minimum = 0.0014 (at node 46)
	maximum = 0.0046 (at node 29)
Injected flit rate average = 0.0582656
	minimum = 0.032 (at node 53)
	maximum = 0.092 (at node 43)
Accepted flit rate average= 0.05835
	minimum = 0.0302 (at node 46)
	maximum = 0.092 (at node 29)
Injected packet length average = 20.0054
Accepted packet length average = 20.0129
Total in-flight flits = 147 (147 measured)
latency change    = 0.0194722
throughput change = 0.00358826
Class 0:
Packet latency average = 52.4844
	minimum = 25
	maximum = 159
Network latency average = 51.7819
	minimum = 25
	maximum = 157
Slowest packet = 1169
Flit latency average = 29.653
	minimum = 6
	maximum = 138
Slowest flit = 23399
Fragmentation average = 5.61483
	minimum = 0
	maximum = 85
Injected packet rate average = 0.00294271
	minimum = 0.00166667 (at node 26)
	maximum = 0.00433333 (at node 59)
Accepted packet rate average = 0.00294271
	minimum = 0.00166667 (at node 15)
	maximum = 0.0045 (at node 31)
Injected flit rate average = 0.0588099
	minimum = 0.0333333 (at node 26)
	maximum = 0.0873333 (at node 59)
Accepted flit rate average= 0.058875
	minimum = 0.0333333 (at node 15)
	maximum = 0.0886667 (at node 31)
Injected packet length average = 19.985
Accepted packet length average = 20.0071
Total in-flight flits = 171 (171 measured)
latency change    = 0.00426903
throughput change = 0.0089172
Draining all recorded packets ...
Draining remaining packets ...
Time taken is 9141 cycles
====== Overall Traffic Statistics ======
====== Traffic class 0 ======
Packet latency average = 52.6463 (1 samples)
	minimum = 25 (1 samples)
	maximum = 159 (1 samples)
Network latency average = 51.9169 (1 samples)
	minimum = 25 (1 samples)
	maximum = 157 (1 samples)
Flit latency average = 29.6854 (1 samples)
	minimum = 6 (1 samples)
	maximum = 138 (1 samples)
Fragmentation average = 5.62688 (1 samples)
	minimum = 0 (1 samples)
	maximum = 85 (1 samples)
Injected packet rate average = 0.00294271 (1 samples)
	minimum = 0.00166667 (1 samples)
	maximum = 0.00433333 (1 samples)
Accepted packet rate average = 0.00294271 (1 samples)
	minimum = 0.00166667 (1 samples)
	maximum = 0.0045 (1 samples)
Injected flit rate average = 0.0588099 (1 samples)
	minimum = 0.0333333 (1 samples)
	maximum = 0.0873333 (1 samples)
Accepted flit rate average = 0.058875 (1 samples)
	minimum = 0.0333333 (1 samples)
	maximum = 0.0886667 (1 samples)
Injected packet size average = 19.985 (1 samples)
Accepted packet size average = 20.0071 (1 samples)
Hops average = 6.28912 (1 samples)
Total run time 1.75119
