BEGIN Configuration File: ../../IL2236_project/verify/figure2/dor/mesh88_lat
// $Id$

// Copyright (c) 2007-2015, Trustees of The Leland Stanford Junior University
// All rights reserved.
//
// Redistribution and use in source and binary forms, with or without
// modification, are permitted provided that the following conditions are met:
//
// Redistributions of source code must retain the above copyright notice, this
// list of conditions and the following disclaimer.
// Redistributions in binary form must reproduce the above copyright notice,
// this list of conditions and the following disclaimer in the documentation
// and/or other materials provided with the distribution.
//
// THIS SOFTWARE IS PROVIDED BY THE COPYRIGHT HOLDERS AND CONTRIBUTORS "AS IS"
// AND ANY EXPRESS OR IMPLIED WARRANTIES, INCLUDING, BUT NOT LIMITED TO, THE
// IMPLIED WARRANTIES OF MERCHANTABILITY AND FITNESS FOR A PARTICULAR PURPOSE
// ARE DISCLAIMED. IN NO EVENT SHALL THE COPYRIGHT OWNER OR CONTRIBUTORS BE
// LIABLE FOR ANY DIRECT, INDIRECT, INCIDENTAL, SPECIAL, EXEMPLARY, OR
// CONSEQUENTIAL DAMAGES (INCLUDING, BUT NOT LIMITED TO, PROCUREMENT OF
// SUBSTITUTE GOODS OR SERVICES; LOSS OF USE, DATA, OR PROFITS; OR BUSINESS
// INTERRUPTION) HOWEVER CAUSED AND ON ANY THEORY OF LIABILITY, WHETHER IN
// CONTRACT, STRICT LIABILITY, OR TORT (INCLUDING NEGLIGENCE OR OTHERWISE)
// ARISING IN ANY WAY OUT OF THE USE OF THIS SOFTWARE, EVEN IF ADVISED OF THE
// POSSIBILITY OF SUCH DAMAGE.

//8X8 mesh with 20 flits per packet under injection mode
//injection rate here is packet per cycle, NOT flit per cycle

// Topology

topology = mesh;
k = 8;
n = 2;

// Routing
routing_function = dor;

// Flow control
num_vcs     = 8;
vc_buf_size = 8;
wait_for_tail_credit = 1;

// Router architecture
vc_allocator = islip;
sw_allocator = islip;
alloc_iters  = 1;

credit_delay   = 2;
routing_delay  = 0;
vc_alloc_delay = 1;
sw_alloc_delay = 1;

input_speedup     = 2;
output_speedup    = 1;
internal_speedup  = 1.0;


// Traffic
traffic = transpose;
packet_size = 20;


// Simulation
sim_type = latency;

injection_rate = .008;


END Configuration File: ../../IL2236_project/verify/figure2/dor/mesh88_lat
Class 0:
Packet latency average = 95.8292
	minimum = 25
	maximum = 412
Network latency average = 91.3236
	minimum = 25
	maximum = 402
Slowest packet = 232
Flit latency average = 51.8436
	minimum = 6
	maximum = 383
Slowest flit = 4659
Fragmentation average = 38.9281
	minimum = 0
	maximum = 173
Injected packet rate average = 0.0076875
	minimum = 0.003 (at node 52)
	maximum = 0.02 (at node 15)
Accepted packet rate average = 0.00695313
	minimum = 0.002 (at node 56)
	maximum = 0.015 (at node 57)
Injected flit rate average = 0.151641
	minimum = 0.06 (at node 52)
	maximum = 0.393 (at node 15)
Accepted flit rate average= 0.143297
	minimum = 0.053 (at node 56)
	maximum = 0.315 (at node 57)
Injected packet length average = 19.7256
Accepted packet length average = 20.609
Total in-flight flits = 669 (0 measured)
latency change    = 1
throughput change = 1
Class 0:
Packet latency average = 110.963
	minimum = 25
	maximum = 696
Network latency average = 101.889
	minimum = 25
	maximum = 536
Slowest packet = 413
Flit latency average = 58.4012
	minimum = 6
	maximum = 495
Slowest flit = 8279
Fragmentation average = 44.2048
	minimum = 0
	maximum = 190
Injected packet rate average = 0.00770312
	minimum = 0.0035 (at node 0)
	maximum = 0.0125 (at node 58)
Accepted packet rate average = 0.00709375
	minimum = 0.0025 (at node 49)
	maximum = 0.0115 (at node 57)
Injected flit rate average = 0.153258
	minimum = 0.07 (at node 0)
	maximum = 0.25 (at node 58)
Accepted flit rate average= 0.14532
	minimum = 0.06 (at node 56)
	maximum = 0.23 (at node 57)
Injected packet length average = 19.8955
Accepted packet length average = 20.4857
Total in-flight flits = 1119 (0 measured)
latency change    = 0.136382
throughput change = 0.013924
Class 0:
Packet latency average = 182.633
	minimum = 25
	maximum = 964
Network latency average = 162.259
	minimum = 25
	maximum = 964
Slowest packet = 998
Flit latency average = 105.793
	minimum = 6
	maximum = 883
Slowest flit = 19975
Fragmentation average = 60.4469
	minimum = 0
	maximum = 180
Injected packet rate average = 0.00795313
	minimum = 0.002 (at node 36)
	maximum = 0.014 (at node 7)
Accepted packet rate average = 0.00779687
	minimum = 0.002 (at node 36)
	maximum = 0.016 (at node 4)
Injected flit rate average = 0.157859
	minimum = 0.04 (at node 36)
	maximum = 0.28 (at node 32)
Accepted flit rate average= 0.156297
	minimum = 0.04 (at node 36)
	maximum = 0.306 (at node 4)
Injected packet length average = 19.8487
Accepted packet length average = 20.0461
Total in-flight flits = 1296 (0 measured)
latency change    = 0.39243
throughput change = 0.0702289
Warmed up ...Time used is 3000 cycles
Class 0:
Packet latency average = 176.678
	minimum = 25
	maximum = 1172
Network latency average = 134.929
	minimum = 25
	maximum = 816
Slowest packet = 1496
Flit latency average = 112.81
	minimum = 6
	maximum = 870
Slowest flit = 30958
Fragmentation average = 54.4927
	minimum = 0
	maximum = 186
Injected packet rate average = 0.0075
	minimum = 0.002 (at node 62)
	maximum = 0.012 (at node 7)
Accepted packet rate average = 0.00778125
	minimum = 0.002 (at node 55)
	maximum = 0.016 (at node 5)
Injected flit rate average = 0.150578
	minimum = 0.04 (at node 62)
	maximum = 0.248 (at node 7)
Accepted flit rate average= 0.153469
	minimum = 0.04 (at node 55)
	maximum = 0.296 (at node 5)
Injected packet length average = 20.0771
Accepted packet length average = 19.7229
Total in-flight flits = 1074 (1074 measured)
latency change    = 0.0337066
throughput change = 0.018428
Class 0:
Packet latency average = 198.98
	minimum = 25
	maximum = 1794
Network latency average = 145.692
	minimum = 25
	maximum = 1087
Slowest packet = 1496
Flit latency average = 106.186
	minimum = 6
	maximum = 1022
Slowest flit = 35155
Fragmentation average = 54.9795
	minimum = 0
	maximum = 186
Injected packet rate average = 0.00741406
	minimum = 0.0035 (at node 62)
	maximum = 0.0115 (at node 1)
Accepted packet rate average = 0.00755469
	minimum = 0.0035 (at node 55)
	maximum = 0.012 (at node 30)
Injected flit rate average = 0.149031
	minimum = 0.07 (at node 62)
	maximum = 0.23 (at node 20)
Accepted flit rate average= 0.150453
	minimum = 0.07 (at node 55)
	maximum = 0.2335 (at node 34)
Injected packet length average = 20.1012
Accepted packet length average = 19.9152
Total in-flight flits = 1018 (1018 measured)
latency change    = 0.112079
throughput change = 0.0200436
Class 0:
Packet latency average = 211.603
	minimum = 25
	maximum = 2069
Network latency average = 144.807
	minimum = 25
	maximum = 1442
Slowest packet = 1496
Flit latency average = 102.321
	minimum = 6
	maximum = 1340
Slowest flit = 41747
Fragmentation average = 52.1437
	minimum = 0
	maximum = 190
Injected packet rate average = 0.00742708
	minimum = 0.003 (at node 32)
	maximum = 0.0113333 (at node 25)
Accepted packet rate average = 0.00759896
	minimum = 0.003 (at node 4)
	maximum = 0.0113333 (at node 11)
Injected flit rate average = 0.148875
	minimum = 0.06 (at node 32)
	maximum = 0.226667 (at node 25)
Accepted flit rate average= 0.150896
	minimum = 0.06 (at node 4)
	maximum = 0.226667 (at node 11)
Injected packet length average = 20.0449
Accepted packet length average = 19.8574
Total in-flight flits = 844 (844 measured)
latency change    = 0.0596574
throughput change = 0.00293387
Class 0:
Packet latency average = 227.656
	minimum = 25
	maximum = 3114
Network latency average = 143.211
	minimum = 25
	maximum = 1442
Slowest packet = 1496
Flit latency average = 98.4257
	minimum = 6
	maximum = 1340
Slowest flit = 41747
Fragmentation average = 50.7977
	minimum = 0
	maximum = 190
Injected packet rate average = 0.00750391
	minimum = 0.0045 (at node 5)
	maximum = 0.0105 (at node 39)
Accepted packet rate average = 0.00754687
	minimum = 0.00425 (at node 40)
	maximum = 0.0105 (at node 5)
Injected flit rate average = 0.150164
	minimum = 0.09 (at node 5)
	maximum = 0.21 (at node 39)
Accepted flit rate average= 0.150363
	minimum = 0.08225 (at node 40)
	maximum = 0.20775 (at node 5)
Injected packet length average = 20.0115
Accepted packet length average = 19.9239
Total in-flight flits = 1223 (1223 measured)
latency change    = 0.0705119
throughput change = 0.00354177
Class 0:
Packet latency average = 234.177
	minimum = 25
	maximum = 3527
Network latency average = 146.191
	minimum = 25
	maximum = 1442
Slowest packet = 1496
Flit latency average = 98.6689
	minimum = 6
	maximum = 1340
Slowest flit = 41747
Fragmentation average = 52.8516
	minimum = 0
	maximum = 190
Injected packet rate average = 0.00755312
	minimum = 0.0046 (at node 5)
	maximum = 0.0104 (at node 26)
Accepted packet rate average = 0.00760312
	minimum = 0.0046 (at node 40)
	maximum = 0.0104 (at node 19)
Injected flit rate average = 0.151178
	minimum = 0.092 (at node 5)
	maximum = 0.205 (at node 26)
Accepted flit rate average= 0.151909
	minimum = 0.0898 (at node 40)
	maximum = 0.205 (at node 19)
Injected packet length average = 20.0153
Accepted packet length average = 19.9799
Total in-flight flits = 1025 (1025 measured)
latency change    = 0.0278461
throughput change = 0.0101777
Class 0:
Packet latency average = 238.297
	minimum = 25
	maximum = 3527
Network latency average = 145.213
	minimum = 25
	maximum = 1442
Slowest packet = 1496
Flit latency average = 97.489
	minimum = 6
	maximum = 1340
Slowest flit = 41747
Fragmentation average = 52.1756
	minimum = 0
	maximum = 190
Injected packet rate average = 0.00752083
	minimum = 0.0045 (at node 5)
	maximum = 0.0106667 (at node 26)
Accepted packet rate average = 0.00758594
	minimum = 0.0045 (at node 40)
	maximum = 0.0106667 (at node 19)
Injected flit rate average = 0.15068
	minimum = 0.09 (at node 5)
	maximum = 0.213333 (at node 26)
Accepted flit rate average= 0.151427
	minimum = 0.0906667 (at node 40)
	maximum = 0.212667 (at node 19)
Injected packet length average = 20.035
Accepted packet length average = 19.9616
Total in-flight flits = 908 (908 measured)
latency change    = 0.0172898
throughput change = 0.00318498
Class 0:
Packet latency average = 243.94
	minimum = 25
	maximum = 3854
Network latency average = 144.391
	minimum = 25
	maximum = 1442
Slowest packet = 1496
Flit latency average = 96.4496
	minimum = 6
	maximum = 1340
Slowest flit = 41747
Fragmentation average = 50.9373
	minimum = 0
	maximum = 190
Injected packet rate average = 0.0075558
	minimum = 0.00471429 (at node 5)
	maximum = 0.00971429 (at node 26)
Accepted packet rate average = 0.00759598
	minimum = 0.00471429 (at node 40)
	maximum = 0.00985714 (at node 19)
Injected flit rate average = 0.151147
	minimum = 0.0942857 (at node 5)
	maximum = 0.194286 (at node 26)
Accepted flit rate average= 0.151629
	minimum = 0.0927143 (at node 40)
	maximum = 0.197429 (at node 48)
Injected packet length average = 20.0041
Accepted packet length average = 19.9618
Total in-flight flits = 1066 (1066 measured)
latency change    = 0.0231329
throughput change = 0.00133471
Draining all recorded packets ...
Class 0:
Remaining flits: 101233 101234 101235 101236 101237 101238 101239 101480 101481 101482 [...] (1179 flits)
Measured flits: 101480 101481 101482 101483 101484 101485 101486 101487 101488 101489 [...] (248 flits)
Class 0:
Remaining flits: 110096 110097 110098 110099 110759 111618 111619 111945 111946 111947 [...] (1385 flits)
Measured flits: 113526 113527 113528 113529 113530 113531 113532 113533 113534 113535 [...] (199 flits)
Class 0:
Remaining flits: 121165 121166 121167 121168 121169 121170 121171 121172 121173 121174 [...] (1301 flits)
Measured flits: 123197 123198 123199 126112 126113 126114 126115 126116 126117 126118 [...] (46 flits)
Class 0:
Remaining flits: 132157 132158 132159 132508 132509 132510 132511 132512 132513 132514 [...] (1136 flits)
Measured flits: 135600 135601 135602 135603 135604 135605 135606 135607 135608 135609 [...] (20 flits)
Draining remaining packets ...
Time taken is 14670 cycles
====== Overall Traffic Statistics ======
====== Traffic class 0 ======
Packet latency average = 323.009 (1 samples)
	minimum = 25 (1 samples)
	maximum = 4377 (1 samples)
Network latency average = 156.289 (1 samples)
	minimum = 25 (1 samples)
	maximum = 1442 (1 samples)
Flit latency average = 101.847 (1 samples)
	minimum = 6 (1 samples)
	maximum = 1340 (1 samples)
Fragmentation average = 54.3859 (1 samples)
	minimum = 0 (1 samples)
	maximum = 190 (1 samples)
Injected packet rate average = 0.0075558 (1 samples)
	minimum = 0.00471429 (1 samples)
	maximum = 0.00971429 (1 samples)
Accepted packet rate average = 0.00759598 (1 samples)
	minimum = 0.00471429 (1 samples)
	maximum = 0.00985714 (1 samples)
Injected flit rate average = 0.151147 (1 samples)
	minimum = 0.0942857 (1 samples)
	maximum = 0.194286 (1 samples)
Accepted flit rate average = 0.151629 (1 samples)
	minimum = 0.0927143 (1 samples)
	maximum = 0.197429 (1 samples)
Injected packet size average = 20.0041 (1 samples)
Accepted packet size average = 19.9618 (1 samples)
Hops average = 6.25532 (1 samples)
Total run time 6.42945
