BEGIN Configuration File: ../../IL2236_project/verify/figure2/dor/mesh88_lat
// $Id$

// Copyright (c) 2007-2015, Trustees of The Leland Stanford Junior University
// All rights reserved.
//
// Redistribution and use in source and binary forms, with or without
// modification, are permitted provided that the following conditions are met:
//
// Redistributions of source code must retain the above copyright notice, this
// list of conditions and the following disclaimer.
// Redistributions in binary form must reproduce the above copyright notice,
// this list of conditions and the following disclaimer in the documentation
// and/or other materials provided with the distribution.
//
// THIS SOFTWARE IS PROVIDED BY THE COPYRIGHT HOLDERS AND CONTRIBUTORS "AS IS"
// AND ANY EXPRESS OR IMPLIED WARRANTIES, INCLUDING, BUT NOT LIMITED TO, THE
// IMPLIED WARRANTIES OF MERCHANTABILITY AND FITNESS FOR A PARTICULAR PURPOSE
// ARE DISCLAIMED. IN NO EVENT SHALL THE COPYRIGHT OWNER OR CONTRIBUTORS BE
// LIABLE FOR ANY DIRECT, INDIRECT, INCIDENTAL, SPECIAL, EXEMPLARY, OR
// CONSEQUENTIAL DAMAGES (INCLUDING, BUT NOT LIMITED TO, PROCUREMENT OF
// SUBSTITUTE GOODS OR SERVICES; LOSS OF USE, DATA, OR PROFITS; OR BUSINESS
// INTERRUPTION) HOWEVER CAUSED AND ON ANY THEORY OF LIABILITY, WHETHER IN
// CONTRACT, STRICT LIABILITY, OR TORT (INCLUDING NEGLIGENCE OR OTHERWISE)
// ARISING IN ANY WAY OUT OF THE USE OF THIS SOFTWARE, EVEN IF ADVISED OF THE
// POSSIBILITY OF SUCH DAMAGE.

//8X8 mesh with 20 flits per packet under injection mode
//injection rate here is packet per cycle, NOT flit per cycle

// Topology

topology = mesh;
k = 8;
n = 2;

// Routing
routing_function = dor;

// Flow control
num_vcs     = 8;
vc_buf_size = 8;
wait_for_tail_credit = 1;

// Router architecture
vc_allocator = islip;
sw_allocator = islip;
alloc_iters  = 1;

credit_delay   = 2;
routing_delay  = 0;
vc_alloc_delay = 1;
sw_alloc_delay = 1;

input_speedup     = 2;
output_speedup    = 1;
internal_speedup  = 1.0;


// Traffic
traffic = transpose;
packet_size = 20;


// Simulation
sim_type = latency;

injection_rate = .010;


END Configuration File: ../../IL2236_project/verify/figure2/dor/mesh88_lat
Class 0:
Packet latency average = 124.734
	minimum = 25
	maximum = 513
Network latency average = 115.64
	minimum = 25
	maximum = 496
Slowest packet = 211
Flit latency average = 64.8964
	minimum = 6
	maximum = 464
Slowest flit = 4239
Fragmentation average = 57.9609
	minimum = 0
	maximum = 198
Injected packet rate average = 0.00928125
	minimum = 0.003 (at node 20)
	maximum = 0.016 (at node 32)
Accepted packet rate average = 0.00798438
	minimum = 0.003 (at node 7)
	maximum = 0.015 (at node 4)
Injected flit rate average = 0.183188
	minimum = 0.06 (at node 20)
	maximum = 0.32 (at node 32)
Accepted flit rate average= 0.167984
	minimum = 0.06 (at node 34)
	maximum = 0.311 (at node 4)
Injected packet length average = 19.7374
Accepted packet length average = 21.0391
Total in-flight flits = 1129 (0 measured)
latency change    = 1
throughput change = 1
Class 0:
Packet latency average = 151.649
	minimum = 25
	maximum = 992
Network latency average = 132.336
	minimum = 25
	maximum = 733
Slowest packet = 285
Flit latency average = 78.5952
	minimum = 6
	maximum = 700
Slowest flit = 13599
Fragmentation average = 60.0986
	minimum = 0
	maximum = 205
Injected packet rate average = 0.00929687
	minimum = 0.004 (at node 20)
	maximum = 0.0145 (at node 22)
Accepted packet rate average = 0.00855469
	minimum = 0.004 (at node 34)
	maximum = 0.013 (at node 19)
Injected flit rate average = 0.184523
	minimum = 0.08 (at node 20)
	maximum = 0.2865 (at node 22)
Accepted flit rate average= 0.174227
	minimum = 0.08 (at node 34)
	maximum = 0.269 (at node 19)
Injected packet length average = 19.8479
Accepted packet length average = 20.3662
Total in-flight flits = 1499 (0 measured)
latency change    = 0.177485
throughput change = 0.035828
Class 0:
Packet latency average = 256.829
	minimum = 25
	maximum = 1519
Network latency average = 188.306
	minimum = 25
	maximum = 777
Slowest packet = 1031
Flit latency average = 123.029
	minimum = 6
	maximum = 758
Slowest flit = 19659
Fragmentation average = 73.6598
	minimum = 0
	maximum = 186
Injected packet rate average = 0.00934375
	minimum = 0.003 (at node 3)
	maximum = 0.019 (at node 9)
Accepted packet rate average = 0.00904687
	minimum = 0.001 (at node 40)
	maximum = 0.018 (at node 9)
Injected flit rate average = 0.184922
	minimum = 0.056 (at node 5)
	maximum = 0.377 (at node 9)
Accepted flit rate average= 0.181109
	minimum = 0.03 (at node 40)
	maximum = 0.371 (at node 9)
Injected packet length average = 19.791
Accepted packet length average = 20.019
Total in-flight flits = 1868 (0 measured)
latency change    = 0.409532
throughput change = 0.0380036
Warmed up ...Time used is 3000 cycles
Class 0:
Packet latency average = 248.695
	minimum = 25
	maximum = 2307
Network latency average = 144.342
	minimum = 25
	maximum = 934
Slowest packet = 1795
Flit latency average = 133.271
	minimum = 6
	maximum = 999
Slowest flit = 34219
Fragmentation average = 57.3117
	minimum = 0
	maximum = 198
Injected packet rate average = 0.00901562
	minimum = 0.004 (at node 3)
	maximum = 0.016 (at node 44)
Accepted packet rate average = 0.009
	minimum = 0.003 (at node 23)
	maximum = 0.016 (at node 37)
Injected flit rate average = 0.181656
	minimum = 0.072 (at node 3)
	maximum = 0.33 (at node 44)
Accepted flit rate average= 0.181812
	minimum = 0.064 (at node 24)
	maximum = 0.332 (at node 37)
Injected packet length average = 20.149
Accepted packet length average = 20.2014
Total in-flight flits = 1772 (1772 measured)
latency change    = 0.0327076
throughput change = 0.00386731
Average latency for class 0 exceeded 500 cycles. Aborting simulation.
Too many sample periods needed to converge
Simulation unstable, ending ...
Total run time 1.95352
