BEGIN Configuration File: ../../IL2236_project/verify/figure2/dor/mesh88_lat
// $Id$

// Copyright (c) 2007-2015, Trustees of The Leland Stanford Junior University
// All rights reserved.
//
// Redistribution and use in source and binary forms, with or without
// modification, are permitted provided that the following conditions are met:
//
// Redistributions of source code must retain the above copyright notice, this
// list of conditions and the following disclaimer.
// Redistributions in binary form must reproduce the above copyright notice,
// this list of conditions and the following disclaimer in the documentation
// and/or other materials provided with the distribution.
//
// THIS SOFTWARE IS PROVIDED BY THE COPYRIGHT HOLDERS AND CONTRIBUTORS "AS IS"
// AND ANY EXPRESS OR IMPLIED WARRANTIES, INCLUDING, BUT NOT LIMITED TO, THE
// IMPLIED WARRANTIES OF MERCHANTABILITY AND FITNESS FOR A PARTICULAR PURPOSE
// ARE DISCLAIMED. IN NO EVENT SHALL THE COPYRIGHT OWNER OR CONTRIBUTORS BE
// LIABLE FOR ANY DIRECT, INDIRECT, INCIDENTAL, SPECIAL, EXEMPLARY, OR
// CONSEQUENTIAL DAMAGES (INCLUDING, BUT NOT LIMITED TO, PROCUREMENT OF
// SUBSTITUTE GOODS OR SERVICES; LOSS OF USE, DATA, OR PROFITS; OR BUSINESS
// INTERRUPTION) HOWEVER CAUSED AND ON ANY THEORY OF LIABILITY, WHETHER IN
// CONTRACT, STRICT LIABILITY, OR TORT (INCLUDING NEGLIGENCE OR OTHERWISE)
// ARISING IN ANY WAY OUT OF THE USE OF THIS SOFTWARE, EVEN IF ADVISED OF THE
// POSSIBILITY OF SUCH DAMAGE.

//8X8 mesh with 20 flits per packet under injection mode
//injection rate here is packet per cycle, NOT flit per cycle

// Topology

topology = mesh;
k = 8;
n = 2;

// Routing
routing_function = dor;

// Flow control
num_vcs     = 8;
vc_buf_size = 8;
wait_for_tail_credit = 1;

// Router architecture
vc_allocator = islip;
sw_allocator = islip;
alloc_iters  = 1;

credit_delay   = 2;
routing_delay  = 0;
vc_alloc_delay = 1;
sw_alloc_delay = 1;

input_speedup     = 2;
output_speedup    = 1;
internal_speedup  = 1.0;


// Traffic
traffic = transpose;
packet_size = 20;


// Simulation
sim_type = latency;

injection_rate = .011;


END Configuration File: ../../IL2236_project/verify/figure2/dor/mesh88_lat
Class 0:
Packet latency average = 124.189
	minimum = 25
	maximum = 721
Network latency average = 111.977
	minimum = 25
	maximum = 699
Slowest packet = 174
Flit latency average = 68.6382
	minimum = 6
	maximum = 709
Slowest flit = 3551
Fragmentation average = 48.2833
	minimum = 0
	maximum = 197
Injected packet rate average = 0.0100156
	minimum = 0.004 (at node 3)
	maximum = 0.017 (at node 56)
Accepted packet rate average = 0.00832813
	minimum = 0.001 (at node 6)
	maximum = 0.015 (at node 62)
Injected flit rate average = 0.197094
	minimum = 0.076 (at node 3)
	maximum = 0.34 (at node 56)
Accepted flit rate average= 0.174875
	minimum = 0.051 (at node 6)
	maximum = 0.3 (at node 62)
Injected packet length average = 19.6786
Accepted packet length average = 20.9981
Total in-flight flits = 1628 (0 measured)
latency change    = 1
throughput change = 1
Class 0:
Packet latency average = 182.951
	minimum = 25
	maximum = 1235
Network latency average = 151.057
	minimum = 25
	maximum = 1100
Slowest packet = 177
Flit latency average = 95.3861
	minimum = 6
	maximum = 1047
Slowest flit = 6715
Fragmentation average = 60.1943
	minimum = 0
	maximum = 197
Injected packet rate average = 0.0098125
	minimum = 0.0045 (at node 58)
	maximum = 0.0165 (at node 47)
Accepted packet rate average = 0.00884375
	minimum = 0.003 (at node 23)
	maximum = 0.015 (at node 61)
Injected flit rate average = 0.194336
	minimum = 0.088 (at node 58)
	maximum = 0.3295 (at node 47)
Accepted flit rate average= 0.181
	minimum = 0.06 (at node 23)
	maximum = 0.3155 (at node 61)
Injected packet length average = 19.8049
Accepted packet length average = 20.4664
Total in-flight flits = 1952 (0 measured)
latency change    = 0.321185
throughput change = 0.0338398
Class 0:
Packet latency average = 309.043
	minimum = 25
	maximum = 1847
Network latency average = 207.58
	minimum = 25
	maximum = 1072
Slowest packet = 745
Flit latency average = 138.378
	minimum = 6
	maximum = 1020
Slowest flit = 22155
Fragmentation average = 75.6961
	minimum = 0
	maximum = 189
Injected packet rate average = 0.00990625
	minimum = 0.004 (at node 3)
	maximum = 0.02 (at node 18)
Accepted packet rate average = 0.00992188
	minimum = 0.003 (at node 21)
	maximum = 0.02 (at node 18)
Injected flit rate average = 0.197078
	minimum = 0.08 (at node 3)
	maximum = 0.4 (at node 18)
Accepted flit rate average= 0.198859
	minimum = 0.07 (at node 39)
	maximum = 0.4 (at node 18)
Injected packet length average = 19.8943
Accepted packet length average = 20.0425
Total in-flight flits = 1905 (0 measured)
latency change    = 0.408009
throughput change = 0.0898091
Average latency for class 0 exceeded 500 cycles. Aborting simulation.
Too many sample periods needed to converge
Simulation unstable, ending ...
Total run time 1.51473
