BEGIN Configuration File: ../../IL2236_project/verify/figure2/dor/mesh88_lat
// $Id$

// Copyright (c) 2007-2015, Trustees of The Leland Stanford Junior University
// All rights reserved.
//
// Redistribution and use in source and binary forms, with or without
// modification, are permitted provided that the following conditions are met:
//
// Redistributions of source code must retain the above copyright notice, this
// list of conditions and the following disclaimer.
// Redistributions in binary form must reproduce the above copyright notice,
// this list of conditions and the following disclaimer in the documentation
// and/or other materials provided with the distribution.
//
// THIS SOFTWARE IS PROVIDED BY THE COPYRIGHT HOLDERS AND CONTRIBUTORS "AS IS"
// AND ANY EXPRESS OR IMPLIED WARRANTIES, INCLUDING, BUT NOT LIMITED TO, THE
// IMPLIED WARRANTIES OF MERCHANTABILITY AND FITNESS FOR A PARTICULAR PURPOSE
// ARE DISCLAIMED. IN NO EVENT SHALL THE COPYRIGHT OWNER OR CONTRIBUTORS BE
// LIABLE FOR ANY DIRECT, INDIRECT, INCIDENTAL, SPECIAL, EXEMPLARY, OR
// CONSEQUENTIAL DAMAGES (INCLUDING, BUT NOT LIMITED TO, PROCUREMENT OF
// SUBSTITUTE GOODS OR SERVICES; LOSS OF USE, DATA, OR PROFITS; OR BUSINESS
// INTERRUPTION) HOWEVER CAUSED AND ON ANY THEORY OF LIABILITY, WHETHER IN
// CONTRACT, STRICT LIABILITY, OR TORT (INCLUDING NEGLIGENCE OR OTHERWISE)
// ARISING IN ANY WAY OUT OF THE USE OF THIS SOFTWARE, EVEN IF ADVISED OF THE
// POSSIBILITY OF SUCH DAMAGE.

//8X8 mesh with 20 flits per packet under injection mode
//injection rate here is packet per cycle, NOT flit per cycle

// Topology

topology = mesh;
k = 8;
n = 2;

// Routing
routing_function = dor;

// Flow control
num_vcs     = 8;
vc_buf_size = 8;
wait_for_tail_credit = 1;

// Router architecture
vc_allocator = islip;
sw_allocator = islip;
alloc_iters  = 1;

credit_delay   = 2;
routing_delay  = 0;
vc_alloc_delay = 1;
sw_alloc_delay = 1;

input_speedup     = 2;
output_speedup    = 1;
internal_speedup  = 1.0;


// Traffic
traffic = transpose;
packet_size = 20;


// Simulation
sim_type = latency;

injection_rate = .016;


END Configuration File: ../../IL2236_project/verify/figure2/dor/mesh88_lat
Class 0:
Packet latency average = 170.019
	minimum = 25
	maximum = 757
Network latency average = 145.598
	minimum = 25
	maximum = 691
Slowest packet = 180
Flit latency average = 90.1027
	minimum = 6
	maximum = 678
Slowest flit = 4807
Fragmentation average = 68.3694
	minimum = 0
	maximum = 196
Injected packet rate average = 0.0125781
	minimum = 0.004 (at node 59)
	maximum = 0.022 (at node 47)
Accepted packet rate average = 0.0101094
	minimum = 0.003 (at node 31)
	maximum = 0.022 (at node 61)
Injected flit rate average = 0.246547
	minimum = 0.076 (at node 59)
	maximum = 0.44 (at node 47)
Accepted flit rate average= 0.212172
	minimum = 0.06 (at node 31)
	maximum = 0.44 (at node 61)
Injected packet length average = 19.6012
Accepted packet length average = 20.9876
Total in-flight flits = 2521 (0 measured)
latency change    = 1
throughput change = 1
Class 0:
Packet latency average = 267.709
	minimum = 25
	maximum = 1614
Network latency average = 188.071
	minimum = 25
	maximum = 969
Slowest packet = 240
Flit latency average = 122.716
	minimum = 6
	maximum = 1000
Slowest flit = 15527
Fragmentation average = 75.0611
	minimum = 0
	maximum = 197
Injected packet rate average = 0.0118984
	minimum = 0.0035 (at node 60)
	maximum = 0.021 (at node 16)
Accepted packet rate average = 0.0106094
	minimum = 0.003 (at node 31)
	maximum = 0.021 (at node 2)
Injected flit rate average = 0.235539
	minimum = 0.0695 (at node 60)
	maximum = 0.42 (at node 16)
Accepted flit rate average= 0.217453
	minimum = 0.06 (at node 39)
	maximum = 0.42 (at node 2)
Injected packet length average = 19.7958
Accepted packet length average = 20.4963
Total in-flight flits = 2626 (0 measured)
latency change    = 0.364913
throughput change = 0.0242868
Average latency for class 0 exceeded 500 cycles. Aborting simulation.
Too many sample periods needed to converge
Simulation unstable, ending ...
Total run time 1.12806
