BEGIN Configuration File: ../../IL2236_project/verify/figure2/dor/mesh88_lat
// $Id$

// Copyright (c) 2007-2015, Trustees of The Leland Stanford Junior University
// All rights reserved.
//
// Redistribution and use in source and binary forms, with or without
// modification, are permitted provided that the following conditions are met:
//
// Redistributions of source code must retain the above copyright notice, this
// list of conditions and the following disclaimer.
// Redistributions in binary form must reproduce the above copyright notice,
// this list of conditions and the following disclaimer in the documentation
// and/or other materials provided with the distribution.
//
// THIS SOFTWARE IS PROVIDED BY THE COPYRIGHT HOLDERS AND CONTRIBUTORS "AS IS"
// AND ANY EXPRESS OR IMPLIED WARRANTIES, INCLUDING, BUT NOT LIMITED TO, THE
// IMPLIED WARRANTIES OF MERCHANTABILITY AND FITNESS FOR A PARTICULAR PURPOSE
// ARE DISCLAIMED. IN NO EVENT SHALL THE COPYRIGHT OWNER OR CONTRIBUTORS BE
// LIABLE FOR ANY DIRECT, INDIRECT, INCIDENTAL, SPECIAL, EXEMPLARY, OR
// CONSEQUENTIAL DAMAGES (INCLUDING, BUT NOT LIMITED TO, PROCUREMENT OF
// SUBSTITUTE GOODS OR SERVICES; LOSS OF USE, DATA, OR PROFITS; OR BUSINESS
// INTERRUPTION) HOWEVER CAUSED AND ON ANY THEORY OF LIABILITY, WHETHER IN
// CONTRACT, STRICT LIABILITY, OR TORT (INCLUDING NEGLIGENCE OR OTHERWISE)
// ARISING IN ANY WAY OUT OF THE USE OF THIS SOFTWARE, EVEN IF ADVISED OF THE
// POSSIBILITY OF SUCH DAMAGE.

//8X8 mesh with 20 flits per packet under injection mode
//injection rate here is packet per cycle, NOT flit per cycle

// Topology

topology = mesh;
k = 8;
n = 2;

// Routing
routing_function = dor;

// Flow control
num_vcs     = 8;
vc_buf_size = 8;
wait_for_tail_credit = 1;

// Router architecture
vc_allocator = islip;
sw_allocator = islip;
alloc_iters  = 1;

credit_delay   = 2;
routing_delay  = 0;
vc_alloc_delay = 1;
sw_alloc_delay = 1;

input_speedup     = 2;
output_speedup    = 1;
internal_speedup  = 1.0;


// Traffic
traffic = transpose;
packet_size = 20;


// Simulation
sim_type = latency;

injection_rate = .017;


END Configuration File: ../../IL2236_project/verify/figure2/dor/mesh88_lat
Class 0:
Packet latency average = 180.726
	minimum = 25
	maximum = 784
Network latency average = 147.288
	minimum = 25
	maximum = 770
Slowest packet = 104
Flit latency average = 91.954
	minimum = 6
	maximum = 747
Slowest flit = 2099
Fragmentation average = 69.0624
	minimum = 0
	maximum = 193
Injected packet rate average = 0.0129531
	minimum = 0.005 (at node 3)
	maximum = 0.024 (at node 0)
Accepted packet rate average = 0.0102656
	minimum = 0.003 (at node 6)
	maximum = 0.023 (at node 0)
Injected flit rate average = 0.253625
	minimum = 0.088 (at node 3)
	maximum = 0.472 (at node 0)
Accepted flit rate average= 0.217594
	minimum = 0.068 (at node 24)
	maximum = 0.466 (at node 0)
Injected packet length average = 19.5802
Accepted packet length average = 21.1963
Total in-flight flits = 2654 (0 measured)
latency change    = 1
throughput change = 1
Class 0:
Packet latency average = 288.088
	minimum = 25
	maximum = 1772
Network latency average = 189.599
	minimum = 25
	maximum = 1205
Slowest packet = 104
Flit latency average = 123.129
	minimum = 6
	maximum = 1159
Slowest flit = 13059
Fragmentation average = 76.8214
	minimum = 0
	maximum = 202
Injected packet rate average = 0.0121953
	minimum = 0.0045 (at node 3)
	maximum = 0.023 (at node 0)
Accepted packet rate average = 0.0108047
	minimum = 0.003 (at node 48)
	maximum = 0.023 (at node 0)
Injected flit rate average = 0.240711
	minimum = 0.088 (at node 3)
	maximum = 0.46 (at node 0)
Accepted flit rate average= 0.22225
	minimum = 0.062 (at node 48)
	maximum = 0.46 (at node 0)
Injected packet length average = 19.738
Accepted packet length average = 20.5698
Total in-flight flits = 2772 (0 measured)
latency change    = 0.372671
throughput change = 0.0209505
Average latency for class 0 exceeded 500 cycles. Aborting simulation.
Too many sample periods needed to converge
Simulation unstable, ending ...
Total run time 1.13188
