BEGIN Configuration File: ../../IL2236_project/verify/figure2/dor/mesh88_lat
// $Id$

// Copyright (c) 2007-2015, Trustees of The Leland Stanford Junior University
// All rights reserved.
//
// Redistribution and use in source and binary forms, with or without
// modification, are permitted provided that the following conditions are met:
//
// Redistributions of source code must retain the above copyright notice, this
// list of conditions and the following disclaimer.
// Redistributions in binary form must reproduce the above copyright notice,
// this list of conditions and the following disclaimer in the documentation
// and/or other materials provided with the distribution.
//
// THIS SOFTWARE IS PROVIDED BY THE COPYRIGHT HOLDERS AND CONTRIBUTORS "AS IS"
// AND ANY EXPRESS OR IMPLIED WARRANTIES, INCLUDING, BUT NOT LIMITED TO, THE
// IMPLIED WARRANTIES OF MERCHANTABILITY AND FITNESS FOR A PARTICULAR PURPOSE
// ARE DISCLAIMED. IN NO EVENT SHALL THE COPYRIGHT OWNER OR CONTRIBUTORS BE
// LIABLE FOR ANY DIRECT, INDIRECT, INCIDENTAL, SPECIAL, EXEMPLARY, OR
// CONSEQUENTIAL DAMAGES (INCLUDING, BUT NOT LIMITED TO, PROCUREMENT OF
// SUBSTITUTE GOODS OR SERVICES; LOSS OF USE, DATA, OR PROFITS; OR BUSINESS
// INTERRUPTION) HOWEVER CAUSED AND ON ANY THEORY OF LIABILITY, WHETHER IN
// CONTRACT, STRICT LIABILITY, OR TORT (INCLUDING NEGLIGENCE OR OTHERWISE)
// ARISING IN ANY WAY OUT OF THE USE OF THIS SOFTWARE, EVEN IF ADVISED OF THE
// POSSIBILITY OF SUCH DAMAGE.

//8X8 mesh with 20 flits per packet under injection mode
//injection rate here is packet per cycle, NOT flit per cycle

// Topology

topology = mesh;
k = 8;
n = 2;

// Routing
routing_function = dor;

// Flow control
num_vcs     = 8;
vc_buf_size = 8;
wait_for_tail_credit = 1;

// Router architecture
vc_allocator = islip;
sw_allocator = islip;
alloc_iters  = 1;

credit_delay   = 2;
routing_delay  = 0;
vc_alloc_delay = 1;
sw_alloc_delay = 1;

input_speedup     = 2;
output_speedup    = 1;
internal_speedup  = 1.0;


// Traffic
traffic = transpose;
packet_size = 20;


// Simulation
sim_type = latency;

injection_rate = .023;


END Configuration File: ../../IL2236_project/verify/figure2/dor/mesh88_lat
Class 0:
Packet latency average = 209.095
	minimum = 25
	maximum = 876
Network latency average = 157.519
	minimum = 25
	maximum = 727
Slowest packet = 105
Flit latency average = 97.9921
	minimum = 6
	maximum = 826
Slowest flit = 3718
Fragmentation average = 73.1775
	minimum = 0
	maximum = 193
Injected packet rate average = 0.0145313
	minimum = 0.006 (at node 3)
	maximum = 0.028 (at node 47)
Accepted packet rate average = 0.0115312
	minimum = 0.003 (at node 23)
	maximum = 0.025 (at node 9)
Injected flit rate average = 0.284438
	minimum = 0.101 (at node 58)
	maximum = 0.56 (at node 47)
Accepted flit rate average= 0.243703
	minimum = 0.06 (at node 48)
	maximum = 0.529 (at node 61)
Injected packet length average = 19.5742
Accepted packet length average = 21.1341
Total in-flight flits = 3003 (0 measured)
latency change    = 1
throughput change = 1
Class 0:
Packet latency average = 358.098
	minimum = 25
	maximum = 1831
Network latency average = 196.683
	minimum = 25
	maximum = 1225
Slowest packet = 200
Flit latency average = 128.028
	minimum = 6
	maximum = 1206
Slowest flit = 7859
Fragmentation average = 78.6149
	minimum = 0
	maximum = 201
Injected packet rate average = 0.0137109
	minimum = 0.0045 (at node 6)
	maximum = 0.026 (at node 45)
Accepted packet rate average = 0.0121719
	minimum = 0.0035 (at node 23)
	maximum = 0.026 (at node 45)
Injected flit rate average = 0.27068
	minimum = 0.084 (at node 58)
	maximum = 0.52 (at node 45)
Accepted flit rate average= 0.250008
	minimum = 0.07 (at node 23)
	maximum = 0.52 (at node 45)
Injected packet length average = 19.7419
Accepted packet length average = 20.5398
Total in-flight flits = 3099 (0 measured)
latency change    = 0.416095
throughput change = 0.025218
Average latency for class 0 exceeded 500 cycles. Aborting simulation.
Too many sample periods needed to converge
Simulation unstable, ending ...
Total run time 1.21108
