BEGIN Configuration File: ../../IL2236_project/verify/figure2/dor/mesh88_lat
// $Id$

// Copyright (c) 2007-2015, Trustees of The Leland Stanford Junior University
// All rights reserved.
//
// Redistribution and use in source and binary forms, with or without
// modification, are permitted provided that the following conditions are met:
//
// Redistributions of source code must retain the above copyright notice, this
// list of conditions and the following disclaimer.
// Redistributions in binary form must reproduce the above copyright notice,
// this list of conditions and the following disclaimer in the documentation
// and/or other materials provided with the distribution.
//
// THIS SOFTWARE IS PROVIDED BY THE COPYRIGHT HOLDERS AND CONTRIBUTORS "AS IS"
// AND ANY EXPRESS OR IMPLIED WARRANTIES, INCLUDING, BUT NOT LIMITED TO, THE
// IMPLIED WARRANTIES OF MERCHANTABILITY AND FITNESS FOR A PARTICULAR PURPOSE
// ARE DISCLAIMED. IN NO EVENT SHALL THE COPYRIGHT OWNER OR CONTRIBUTORS BE
// LIABLE FOR ANY DIRECT, INDIRECT, INCIDENTAL, SPECIAL, EXEMPLARY, OR
// CONSEQUENTIAL DAMAGES (INCLUDING, BUT NOT LIMITED TO, PROCUREMENT OF
// SUBSTITUTE GOODS OR SERVICES; LOSS OF USE, DATA, OR PROFITS; OR BUSINESS
// INTERRUPTION) HOWEVER CAUSED AND ON ANY THEORY OF LIABILITY, WHETHER IN
// CONTRACT, STRICT LIABILITY, OR TORT (INCLUDING NEGLIGENCE OR OTHERWISE)
// ARISING IN ANY WAY OUT OF THE USE OF THIS SOFTWARE, EVEN IF ADVISED OF THE
// POSSIBILITY OF SUCH DAMAGE.

//8X8 mesh with 20 flits per packet under injection mode
//injection rate here is packet per cycle, NOT flit per cycle

// Topology

topology = mesh;
k = 8;
n = 2;

// Routing
routing_function = dor;

// Flow control
num_vcs     = 8;
vc_buf_size = 8;
wait_for_tail_credit = 1;

// Router architecture
vc_allocator = islip;
sw_allocator = islip;
alloc_iters  = 1;

credit_delay   = 2;
routing_delay  = 0;
vc_alloc_delay = 1;
sw_alloc_delay = 1;

input_speedup     = 2;
output_speedup    = 1;
internal_speedup  = 1.0;


// Traffic
traffic = transpose;
packet_size = 20;


// Simulation
sim_type = latency;

injection_rate = .025;


END Configuration File: ../../IL2236_project/verify/figure2/dor/mesh88_lat
Class 0:
Packet latency average = 206.308
	minimum = 25
	maximum = 845
Network latency average = 154.01
	minimum = 25
	maximum = 835
Slowest packet = 151
Flit latency average = 98.5988
	minimum = 6
	maximum = 862
Slowest flit = 3154
Fragmentation average = 69.7624
	minimum = 0
	maximum = 196
Injected packet rate average = 0.0150781
	minimum = 0.005 (at node 12)
	maximum = 0.034 (at node 0)
Accepted packet rate average = 0.0119688
	minimum = 0.003 (at node 15)
	maximum = 0.033 (at node 0)
Injected flit rate average = 0.294563
	minimum = 0.096 (at node 12)
	maximum = 0.674 (at node 0)
Accepted flit rate average= 0.253266
	minimum = 0.06 (at node 15)
	maximum = 0.668 (at node 0)
Injected packet length average = 19.5358
Accepted packet length average = 21.1606
Total in-flight flits = 3091 (0 measured)
latency change    = 1
throughput change = 1
Class 0:
Packet latency average = 351.823
	minimum = 25
	maximum = 1742
Network latency average = 188.281
	minimum = 25
	maximum = 1191
Slowest packet = 151
Flit latency average = 124.363
	minimum = 6
	maximum = 1172
Slowest flit = 10839
Fragmentation average = 73.6012
	minimum = 0
	maximum = 199
Injected packet rate average = 0.01425
	minimum = 0.004 (at node 12)
	maximum = 0.034 (at node 45)
Accepted packet rate average = 0.0127344
	minimum = 0.003 (at node 33)
	maximum = 0.034 (at node 45)
Injected flit rate average = 0.281922
	minimum = 0.078 (at node 12)
	maximum = 0.68 (at node 45)
Accepted flit rate average= 0.26175
	minimum = 0.0675 (at node 33)
	maximum = 0.68 (at node 45)
Injected packet length average = 19.784
Accepted packet length average = 20.5546
Total in-flight flits = 2976 (0 measured)
latency change    = 0.413602
throughput change = 0.032414
Average latency for class 0 exceeded 500 cycles. Aborting simulation.
Too many sample periods needed to converge
Simulation unstable, ending ...
Total run time 1.22898
