BEGIN Configuration File: ../../IL2236_project/verify/figure2/dor/mesh88_lat
// $Id$

// Copyright (c) 2007-2015, Trustees of The Leland Stanford Junior University
// All rights reserved.
//
// Redistribution and use in source and binary forms, with or without
// modification, are permitted provided that the following conditions are met:
//
// Redistributions of source code must retain the above copyright notice, this
// list of conditions and the following disclaimer.
// Redistributions in binary form must reproduce the above copyright notice,
// this list of conditions and the following disclaimer in the documentation
// and/or other materials provided with the distribution.
//
// THIS SOFTWARE IS PROVIDED BY THE COPYRIGHT HOLDERS AND CONTRIBUTORS "AS IS"
// AND ANY EXPRESS OR IMPLIED WARRANTIES, INCLUDING, BUT NOT LIMITED TO, THE
// IMPLIED WARRANTIES OF MERCHANTABILITY AND FITNESS FOR A PARTICULAR PURPOSE
// ARE DISCLAIMED. IN NO EVENT SHALL THE COPYRIGHT OWNER OR CONTRIBUTORS BE
// LIABLE FOR ANY DIRECT, INDIRECT, INCIDENTAL, SPECIAL, EXEMPLARY, OR
// CONSEQUENTIAL DAMAGES (INCLUDING, BUT NOT LIMITED TO, PROCUREMENT OF
// SUBSTITUTE GOODS OR SERVICES; LOSS OF USE, DATA, OR PROFITS; OR BUSINESS
// INTERRUPTION) HOWEVER CAUSED AND ON ANY THEORY OF LIABILITY, WHETHER IN
// CONTRACT, STRICT LIABILITY, OR TORT (INCLUDING NEGLIGENCE OR OTHERWISE)
// ARISING IN ANY WAY OUT OF THE USE OF THIS SOFTWARE, EVEN IF ADVISED OF THE
// POSSIBILITY OF SUCH DAMAGE.

//8X8 mesh with 20 flits per packet under injection mode
//injection rate here is packet per cycle, NOT flit per cycle

// Topology

topology = mesh;
k = 8;
n = 2;

// Routing
routing_function = dor;

// Flow control
num_vcs     = 8;
vc_buf_size = 8;
wait_for_tail_credit = 1;

// Router architecture
vc_allocator = islip;
sw_allocator = islip;
alloc_iters  = 1;

credit_delay   = 2;
routing_delay  = 0;
vc_alloc_delay = 1;
sw_alloc_delay = 1;

input_speedup     = 2;
output_speedup    = 1;
internal_speedup  = 1.0;


// Traffic
traffic = transpose;
packet_size = 20;


// Simulation
sim_type = latency;

injection_rate = .026;


END Configuration File: ../../IL2236_project/verify/figure2/dor/mesh88_lat
Class 0:
Packet latency average = 216.37
	minimum = 25
	maximum = 888
Network latency average = 157.105
	minimum = 25
	maximum = 844
Slowest packet = 168
Flit latency average = 101.227
	minimum = 6
	maximum = 817
Slowest flit = 3379
Fragmentation average = 71.013
	minimum = 0
	maximum = 193
Injected packet rate average = 0.015125
	minimum = 0.005 (at node 20)
	maximum = 0.033 (at node 9)
Accepted packet rate average = 0.0120313
	minimum = 0.003 (at node 34)
	maximum = 0.031 (at node 9)
Injected flit rate average = 0.295969
	minimum = 0.096 (at node 60)
	maximum = 0.643 (at node 9)
Accepted flit rate average= 0.254781
	minimum = 0.077 (at node 39)
	maximum = 0.637 (at node 9)
Injected packet length average = 19.5682
Accepted packet length average = 21.1766
Total in-flight flits = 3054 (0 measured)
latency change    = 1
throughput change = 1
Class 0:
Packet latency average = 356.551
	minimum = 25
	maximum = 1695
Network latency average = 191.893
	minimum = 25
	maximum = 1323
Slowest packet = 278
Flit latency average = 125.714
	minimum = 6
	maximum = 1302
Slowest flit = 13579
Fragmentation average = 73.2754
	minimum = 0
	maximum = 194
Injected packet rate average = 0.0144766
	minimum = 0.005 (at node 3)
	maximum = 0.034 (at node 9)
Accepted packet rate average = 0.0129375
	minimum = 0.0035 (at node 23)
	maximum = 0.034 (at node 9)
Injected flit rate average = 0.285836
	minimum = 0.094 (at node 20)
	maximum = 0.68 (at node 9)
Accepted flit rate average= 0.265195
	minimum = 0.076 (at node 23)
	maximum = 0.68 (at node 9)
Injected packet length average = 19.7447
Accepted packet length average = 20.4982
Total in-flight flits = 3115 (0 measured)
latency change    = 0.393158
throughput change = 0.0392694
Average latency for class 0 exceeded 500 cycles. Aborting simulation.
Too many sample periods needed to converge
Simulation unstable, ending ...
Total run time 1.23583
