BEGIN Configuration File: ../../IL2236_project/verify/figure2/dor/mesh88_lat
// $Id$

// Copyright (c) 2007-2015, Trustees of The Leland Stanford Junior University
// All rights reserved.
//
// Redistribution and use in source and binary forms, with or without
// modification, are permitted provided that the following conditions are met:
//
// Redistributions of source code must retain the above copyright notice, this
// list of conditions and the following disclaimer.
// Redistributions in binary form must reproduce the above copyright notice,
// this list of conditions and the following disclaimer in the documentation
// and/or other materials provided with the distribution.
//
// THIS SOFTWARE IS PROVIDED BY THE COPYRIGHT HOLDERS AND CONTRIBUTORS "AS IS"
// AND ANY EXPRESS OR IMPLIED WARRANTIES, INCLUDING, BUT NOT LIMITED TO, THE
// IMPLIED WARRANTIES OF MERCHANTABILITY AND FITNESS FOR A PARTICULAR PURPOSE
// ARE DISCLAIMED. IN NO EVENT SHALL THE COPYRIGHT OWNER OR CONTRIBUTORS BE
// LIABLE FOR ANY DIRECT, INDIRECT, INCIDENTAL, SPECIAL, EXEMPLARY, OR
// CONSEQUENTIAL DAMAGES (INCLUDING, BUT NOT LIMITED TO, PROCUREMENT OF
// SUBSTITUTE GOODS OR SERVICES; LOSS OF USE, DATA, OR PROFITS; OR BUSINESS
// INTERRUPTION) HOWEVER CAUSED AND ON ANY THEORY OF LIABILITY, WHETHER IN
// CONTRACT, STRICT LIABILITY, OR TORT (INCLUDING NEGLIGENCE OR OTHERWISE)
// ARISING IN ANY WAY OUT OF THE USE OF THIS SOFTWARE, EVEN IF ADVISED OF THE
// POSSIBILITY OF SUCH DAMAGE.

//8X8 mesh with 20 flits per packet under injection mode
//injection rate here is packet per cycle, NOT flit per cycle

// Topology

topology = mesh;
k = 8;
n = 2;

// Routing
routing_function = dor;

// Flow control
num_vcs     = 8;
vc_buf_size = 8;
wait_for_tail_credit = 1;

// Router architecture
vc_allocator = islip;
sw_allocator = islip;
alloc_iters  = 1;

credit_delay   = 2;
routing_delay  = 0;
vc_alloc_delay = 1;
sw_alloc_delay = 1;

input_speedup     = 2;
output_speedup    = 1;
internal_speedup  = 1.0;


// Traffic
traffic = transpose;
packet_size = 20;


// Simulation
sim_type = latency;

injection_rate = .027;


END Configuration File: ../../IL2236_project/verify/figure2/dor/mesh88_lat
Class 0:
Packet latency average = 220.076
	minimum = 25
	maximum = 899
Network latency average = 160.063
	minimum = 25
	maximum = 844
Slowest packet = 172
Flit latency average = 102.835
	minimum = 6
	maximum = 817
Slowest flit = 3459
Fragmentation average = 73.205
	minimum = 0
	maximum = 194
Injected packet rate average = 0.015
	minimum = 0.005 (at node 20)
	maximum = 0.034 (at node 63)
Accepted packet rate average = 0.0118906
	minimum = 0.002 (at node 32)
	maximum = 0.034 (at node 63)
Injected flit rate average = 0.292609
	minimum = 0.098 (at node 20)
	maximum = 0.68 (at node 63)
Accepted flit rate average= 0.251594
	minimum = 0.05 (at node 32)
	maximum = 0.68 (at node 63)
Injected packet length average = 19.5073
Accepted packet length average = 21.159
Total in-flight flits = 3098 (0 measured)
latency change    = 1
throughput change = 1
Class 0:
Packet latency average = 378.689
	minimum = 25
	maximum = 1753
Network latency average = 196.788
	minimum = 25
	maximum = 1501
Slowest packet = 172
Flit latency average = 127.905
	minimum = 6
	maximum = 1482
Slowest flit = 8259
Fragmentation average = 77.1765
	minimum = 0
	maximum = 194
Injected packet rate average = 0.0143125
	minimum = 0.004 (at node 6)
	maximum = 0.0285 (at node 36)
Accepted packet rate average = 0.01275
	minimum = 0.003 (at node 40)
	maximum = 0.0285 (at node 63)
Injected flit rate average = 0.282352
	minimum = 0.074 (at node 6)
	maximum = 0.57 (at node 63)
Accepted flit rate average= 0.262
	minimum = 0.06 (at node 40)
	maximum = 0.57 (at node 63)
Injected packet length average = 19.7276
Accepted packet length average = 20.549
Total in-flight flits = 3104 (0 measured)
latency change    = 0.418848
throughput change = 0.0397185
Average latency for class 0 exceeded 500 cycles. Aborting simulation.
Too many sample periods needed to converge
Simulation unstable, ending ...
Total run time 1.23089
