BEGIN Configuration File: ../../IL2236_project/verify/figure2/dor/mesh88_lat
// $Id$

// Copyright (c) 2007-2015, Trustees of The Leland Stanford Junior University
// All rights reserved.
//
// Redistribution and use in source and binary forms, with or without
// modification, are permitted provided that the following conditions are met:
//
// Redistributions of source code must retain the above copyright notice, this
// list of conditions and the following disclaimer.
// Redistributions in binary form must reproduce the above copyright notice,
// this list of conditions and the following disclaimer in the documentation
// and/or other materials provided with the distribution.
//
// THIS SOFTWARE IS PROVIDED BY THE COPYRIGHT HOLDERS AND CONTRIBUTORS "AS IS"
// AND ANY EXPRESS OR IMPLIED WARRANTIES, INCLUDING, BUT NOT LIMITED TO, THE
// IMPLIED WARRANTIES OF MERCHANTABILITY AND FITNESS FOR A PARTICULAR PURPOSE
// ARE DISCLAIMED. IN NO EVENT SHALL THE COPYRIGHT OWNER OR CONTRIBUTORS BE
// LIABLE FOR ANY DIRECT, INDIRECT, INCIDENTAL, SPECIAL, EXEMPLARY, OR
// CONSEQUENTIAL DAMAGES (INCLUDING, BUT NOT LIMITED TO, PROCUREMENT OF
// SUBSTITUTE GOODS OR SERVICES; LOSS OF USE, DATA, OR PROFITS; OR BUSINESS
// INTERRUPTION) HOWEVER CAUSED AND ON ANY THEORY OF LIABILITY, WHETHER IN
// CONTRACT, STRICT LIABILITY, OR TORT (INCLUDING NEGLIGENCE OR OTHERWISE)
// ARISING IN ANY WAY OUT OF THE USE OF THIS SOFTWARE, EVEN IF ADVISED OF THE
// POSSIBILITY OF SUCH DAMAGE.

//8X8 mesh with 20 flits per packet under injection mode
//injection rate here is packet per cycle, NOT flit per cycle

// Topology

topology = mesh;
k = 8;
n = 2;

// Routing
routing_function = dor;

// Flow control
num_vcs     = 8;
vc_buf_size = 8;
wait_for_tail_credit = 1;

// Router architecture
vc_allocator = islip;
sw_allocator = islip;
alloc_iters  = 1;

credit_delay   = 2;
routing_delay  = 0;
vc_alloc_delay = 1;
sw_alloc_delay = 1;

input_speedup     = 2;
output_speedup    = 1;
internal_speedup  = 1.0;


// Traffic
traffic = transpose;
packet_size = 20;


// Simulation
sim_type = latency;

injection_rate = .029;


END Configuration File: ../../IL2236_project/verify/figure2/dor/mesh88_lat
Class 0:
Packet latency average = 233.095
	minimum = 25
	maximum = 873
Network latency average = 158.996
	minimum = 25
	maximum = 790
Slowest packet = 120
Flit latency average = 101.979
	minimum = 6
	maximum = 771
Slowest flit = 5544
Fragmentation average = 72.6149
	minimum = 0
	maximum = 195
Injected packet rate average = 0.0152031
	minimum = 0.005 (at node 4)
	maximum = 0.032 (at node 8)
Accepted packet rate average = 0.0121719
	minimum = 0.002 (at node 15)
	maximum = 0.031 (at node 62)
Injected flit rate average = 0.296938
	minimum = 0.088 (at node 4)
	maximum = 0.631 (at node 8)
Accepted flit rate average= 0.257359
	minimum = 0.045 (at node 15)
	maximum = 0.62 (at node 62)
Injected packet length average = 19.5313
Accepted packet length average = 21.1438
Total in-flight flits = 2989 (0 measured)
latency change    = 1
throughput change = 1
Class 0:
Packet latency average = 380.704
	minimum = 25
	maximum = 1799
Network latency average = 189.44
	minimum = 25
	maximum = 1162
Slowest packet = 120
Flit latency average = 124.099
	minimum = 6
	maximum = 1143
Slowest flit = 12399
Fragmentation average = 74.0418
	minimum = 0
	maximum = 209
Injected packet rate average = 0.0148594
	minimum = 0.004 (at node 60)
	maximum = 0.034 (at node 55)
Accepted packet rate average = 0.0132734
	minimum = 0.003 (at node 39)
	maximum = 0.0335 (at node 62)
Injected flit rate average = 0.293836
	minimum = 0.078 (at node 60)
	maximum = 0.6795 (at node 55)
Accepted flit rate average= 0.273266
	minimum = 0.067 (at node 39)
	maximum = 0.6725 (at node 62)
Injected packet length average = 19.7744
Accepted packet length average = 20.5874
Total in-flight flits = 3062 (0 measured)
latency change    = 0.387726
throughput change = 0.058208
Average latency for class 0 exceeded 500 cycles. Aborting simulation.
Too many sample periods needed to converge
Simulation unstable, ending ...
Total run time 1.24633
