BEGIN Configuration File: ../../IL2236_project/verify/figure2/dor/mesh88_lat
// $Id$

// Copyright (c) 2007-2015, Trustees of The Leland Stanford Junior University
// All rights reserved.
//
// Redistribution and use in source and binary forms, with or without
// modification, are permitted provided that the following conditions are met:
//
// Redistributions of source code must retain the above copyright notice, this
// list of conditions and the following disclaimer.
// Redistributions in binary form must reproduce the above copyright notice,
// this list of conditions and the following disclaimer in the documentation
// and/or other materials provided with the distribution.
//
// THIS SOFTWARE IS PROVIDED BY THE COPYRIGHT HOLDERS AND CONTRIBUTORS "AS IS"
// AND ANY EXPRESS OR IMPLIED WARRANTIES, INCLUDING, BUT NOT LIMITED TO, THE
// IMPLIED WARRANTIES OF MERCHANTABILITY AND FITNESS FOR A PARTICULAR PURPOSE
// ARE DISCLAIMED. IN NO EVENT SHALL THE COPYRIGHT OWNER OR CONTRIBUTORS BE
// LIABLE FOR ANY DIRECT, INDIRECT, INCIDENTAL, SPECIAL, EXEMPLARY, OR
// CONSEQUENTIAL DAMAGES (INCLUDING, BUT NOT LIMITED TO, PROCUREMENT OF
// SUBSTITUTE GOODS OR SERVICES; LOSS OF USE, DATA, OR PROFITS; OR BUSINESS
// INTERRUPTION) HOWEVER CAUSED AND ON ANY THEORY OF LIABILITY, WHETHER IN
// CONTRACT, STRICT LIABILITY, OR TORT (INCLUDING NEGLIGENCE OR OTHERWISE)
// ARISING IN ANY WAY OUT OF THE USE OF THIS SOFTWARE, EVEN IF ADVISED OF THE
// POSSIBILITY OF SUCH DAMAGE.

//8X8 mesh with 20 flits per packet under injection mode
//injection rate here is packet per cycle, NOT flit per cycle

// Topology

topology = mesh;
k = 8;
n = 2;

// Routing
routing_function = dor;

// Flow control
num_vcs     = 8;
vc_buf_size = 8;
wait_for_tail_credit = 1;

// Router architecture
vc_allocator = islip;
sw_allocator = islip;
alloc_iters  = 1;

credit_delay   = 2;
routing_delay  = 0;
vc_alloc_delay = 1;
sw_alloc_delay = 1;

input_speedup     = 2;
output_speedup    = 1;
internal_speedup  = 1.0;


// Traffic
traffic = transpose;
packet_size = 20;


// Simulation
sim_type = latency;

injection_rate = .030;


END Configuration File: ../../IL2236_project/verify/figure2/dor/mesh88_lat
Class 0:
Packet latency average = 220.438
	minimum = 25
	maximum = 840
Network latency average = 156.583
	minimum = 25
	maximum = 789
Slowest packet = 92
Flit latency average = 102.109
	minimum = 6
	maximum = 784
Slowest flit = 5092
Fragmentation average = 70.2836
	minimum = 0
	maximum = 198
Injected packet rate average = 0.0157344
	minimum = 0.005 (at node 3)
	maximum = 0.034 (at node 27)
Accepted packet rate average = 0.0125625
	minimum = 0.002 (at node 15)
	maximum = 0.034 (at node 27)
Injected flit rate average = 0.307047
	minimum = 0.088 (at node 3)
	maximum = 0.68 (at node 27)
Accepted flit rate average= 0.265875
	minimum = 0.064 (at node 22)
	maximum = 0.68 (at node 27)
Injected packet length average = 19.5144
Accepted packet length average = 21.1642
Total in-flight flits = 3124 (0 measured)
latency change    = 1
throughput change = 1
Class 0:
Packet latency average = 376.856
	minimum = 25
	maximum = 1830
Network latency average = 187.077
	minimum = 25
	maximum = 1280
Slowest packet = 92
Flit latency average = 121.998
	minimum = 6
	maximum = 1222
Slowest flit = 7399
Fragmentation average = 72.3461
	minimum = 0
	maximum = 214
Injected packet rate average = 0.0152734
	minimum = 0.0035 (at node 57)
	maximum = 0.035 (at node 36)
Accepted packet rate average = 0.0137031
	minimum = 0.0025 (at node 15)
	maximum = 0.035 (at node 36)
Injected flit rate average = 0.301945
	minimum = 0.068 (at node 57)
	maximum = 0.7 (at node 36)
Accepted flit rate average= 0.280898
	minimum = 0.05 (at node 15)
	maximum = 0.7 (at node 36)
Injected packet length average = 19.7693
Accepted packet length average = 20.4989
Total in-flight flits = 3145 (0 measured)
latency change    = 0.415061
throughput change = 0.0534835
Average latency for class 0 exceeded 500 cycles. Aborting simulation.
Too many sample periods needed to converge
Simulation unstable, ending ...
Total run time 1.25983
