BEGIN Configuration File: ../../IL2236_project/verify/figure2/dor/mesh88_lat
// $Id$

// Copyright (c) 2007-2015, Trustees of The Leland Stanford Junior University
// All rights reserved.
//
// Redistribution and use in source and binary forms, with or without
// modification, are permitted provided that the following conditions are met:
//
// Redistributions of source code must retain the above copyright notice, this
// list of conditions and the following disclaimer.
// Redistributions in binary form must reproduce the above copyright notice,
// this list of conditions and the following disclaimer in the documentation
// and/or other materials provided with the distribution.
//
// THIS SOFTWARE IS PROVIDED BY THE COPYRIGHT HOLDERS AND CONTRIBUTORS "AS IS"
// AND ANY EXPRESS OR IMPLIED WARRANTIES, INCLUDING, BUT NOT LIMITED TO, THE
// IMPLIED WARRANTIES OF MERCHANTABILITY AND FITNESS FOR A PARTICULAR PURPOSE
// ARE DISCLAIMED. IN NO EVENT SHALL THE COPYRIGHT OWNER OR CONTRIBUTORS BE
// LIABLE FOR ANY DIRECT, INDIRECT, INCIDENTAL, SPECIAL, EXEMPLARY, OR
// CONSEQUENTIAL DAMAGES (INCLUDING, BUT NOT LIMITED TO, PROCUREMENT OF
// SUBSTITUTE GOODS OR SERVICES; LOSS OF USE, DATA, OR PROFITS; OR BUSINESS
// INTERRUPTION) HOWEVER CAUSED AND ON ANY THEORY OF LIABILITY, WHETHER IN
// CONTRACT, STRICT LIABILITY, OR TORT (INCLUDING NEGLIGENCE OR OTHERWISE)
// ARISING IN ANY WAY OUT OF THE USE OF THIS SOFTWARE, EVEN IF ADVISED OF THE
// POSSIBILITY OF SUCH DAMAGE.

//8X8 mesh with 20 flits per packet under injection mode
//injection rate here is packet per cycle, NOT flit per cycle

// Topology

topology = mesh;
k = 8;
n = 2;

// Routing
routing_function = dor;

// Flow control
num_vcs     = 8;
vc_buf_size = 8;
wait_for_tail_credit = 1;

// Router architecture
vc_allocator = islip;
sw_allocator = islip;
alloc_iters  = 1;

credit_delay   = 2;
routing_delay  = 0;
vc_alloc_delay = 1;
sw_alloc_delay = 1;

input_speedup     = 2;
output_speedup    = 1;
internal_speedup  = 1.0;


// Traffic
traffic = transpose;
packet_size = 20;


// Simulation
sim_type = latency;

injection_rate = .033;


END Configuration File: ../../IL2236_project/verify/figure2/dor/mesh88_lat
Class 0:
Packet latency average = 216.839
	minimum = 25
	maximum = 861
Network latency average = 148.525
	minimum = 25
	maximum = 804
Slowest packet = 138
Flit latency average = 96.1438
	minimum = 6
	maximum = 902
Slowest flit = 2192
Fragmentation average = 64.9859
	minimum = 0
	maximum = 200
Injected packet rate average = 0.0164531
	minimum = 0.004 (at node 58)
	maximum = 0.041 (at node 8)
Accepted packet rate average = 0.0133281
	minimum = 0.001 (at node 23)
	maximum = 0.041 (at node 1)
Injected flit rate average = 0.321969
	minimum = 0.076 (at node 58)
	maximum = 0.82 (at node 8)
Accepted flit rate average= 0.281609
	minimum = 0.029 (at node 23)
	maximum = 0.82 (at node 1)
Injected packet length average = 19.5689
Accepted packet length average = 21.129
Total in-flight flits = 3037 (0 measured)
latency change    = 1
throughput change = 1
Class 0:
Packet latency average = 376.3
	minimum = 25
	maximum = 1805
Network latency average = 180.351
	minimum = 25
	maximum = 1371
Slowest packet = 109
Flit latency average = 117.451
	minimum = 6
	maximum = 1325
Slowest flit = 10539
Fragmentation average = 68.9819
	minimum = 0
	maximum = 200
Injected packet rate average = 0.0158438
	minimum = 0.0035 (at node 58)
	maximum = 0.045 (at node 36)
Accepted packet rate average = 0.01425
	minimum = 0.0025 (at node 23)
	maximum = 0.0445 (at node 36)
Injected flit rate average = 0.313148
	minimum = 0.068 (at node 58)
	maximum = 0.897 (at node 36)
Accepted flit rate average= 0.291836
	minimum = 0.05 (at node 23)
	maximum = 0.894 (at node 36)
Injected packet length average = 19.7648
Accepted packet length average = 20.4797
Total in-flight flits = 3205 (0 measured)
latency change    = 0.42376
throughput change = 0.0350422
Average latency for class 0 exceeded 500 cycles. Aborting simulation.
Too many sample periods needed to converge
Simulation unstable, ending ...
Total run time 1.2712
