BEGIN Configuration File: ../../IL2236_project/verify/figure1/dor/mesh88_lat
// $Id$

// Copyright (c) 2007-2015, Trustees of The Leland Stanford Junior University
// All rights reserved.
//
// Redistribution and use in source and binary forms, with or without
// modification, are permitted provided that the following conditions are met:
//
// Redistributions of source code must retain the above copyright notice, this
// list of conditions and the following disclaimer.
// Redistributions in binary form must reproduce the above copyright notice,
// this list of conditions and the following disclaimer in the documentation
// and/or other materials provided with the distribution.
//
// THIS SOFTWARE IS PROVIDED BY THE COPYRIGHT HOLDERS AND CONTRIBUTORS "AS IS"
// AND ANY EXPRESS OR IMPLIED WARRANTIES, INCLUDING, BUT NOT LIMITED TO, THE
// IMPLIED WARRANTIES OF MERCHANTABILITY AND FITNESS FOR A PARTICULAR PURPOSE
// ARE DISCLAIMED. IN NO EVENT SHALL THE COPYRIGHT OWNER OR CONTRIBUTORS BE
// LIABLE FOR ANY DIRECT, INDIRECT, INCIDENTAL, SPECIAL, EXEMPLARY, OR
// CONSEQUENTIAL DAMAGES (INCLUDING, BUT NOT LIMITED TO, PROCUREMENT OF
// SUBSTITUTE GOODS OR SERVICES; LOSS OF USE, DATA, OR PROFITS; OR BUSINESS
// INTERRUPTION) HOWEVER CAUSED AND ON ANY THEORY OF LIABILITY, WHETHER IN
// CONTRACT, STRICT LIABILITY, OR TORT (INCLUDING NEGLIGENCE OR OTHERWISE)
// ARISING IN ANY WAY OUT OF THE USE OF THIS SOFTWARE, EVEN IF ADVISED OF THE
// POSSIBILITY OF SUCH DAMAGE.

//8X8 mesh with 20 flits per packet under injection mode
//injection rate here is packet per cycle, NOT flit per cycle

// Topology

topology = mesh;
k = 8;
n = 2;

// Routing
routing_function = dor;

// Flow control
num_vcs     = 8;
vc_buf_size = 8;
wait_for_tail_credit = 1;

// Router architecture
vc_allocator = islip;
sw_allocator = islip;
alloc_iters  = 1;

credit_delay   = 2;
routing_delay  = 0;
vc_alloc_delay = 1;
sw_alloc_delay = 1;

input_speedup     = 2;
output_speedup    = 1;
internal_speedup  = 1.0;


// Traffic
traffic = uniform;
packet_size = 20;


// Simulation
sim_type = latency;

injection_rate = .004;


END Configuration File: ../../IL2236_project/verify/figure1/dor/mesh88_lat
Class 0:
Packet latency average = 51.6035
	minimum = 25
	maximum = 100
Network latency average = 50.5374
	minimum = 25
	maximum = 100
Slowest packet = 73
Flit latency average = 28.5657
	minimum = 6
	maximum = 81
Slowest flit = 1479
Fragmentation average = 5.39207
	minimum = 0
	maximum = 43
Injected packet rate average = 0.00364063
	minimum = 0 (at node 35)
	maximum = 0.011 (at node 23)
Accepted packet rate average = 0.00354688
	minimum = 0 (at node 29)
	maximum = 0.009 (at node 18)
Injected flit rate average = 0.0720781
	minimum = 0 (at node 35)
	maximum = 0.22 (at node 23)
Accepted flit rate average= 0.0710937
	minimum = 0 (at node 29)
	maximum = 0.18 (at node 18)
Injected packet length average = 19.7983
Accepted packet length average = 20.0441
Total in-flight flits = 110 (0 measured)
latency change    = 1
throughput change = 1
Class 0:
Packet latency average = 51.2391
	minimum = 25
	maximum = 107
Network latency average = 50.4116
	minimum = 25
	maximum = 107
Slowest packet = 395
Flit latency average = 28.6969
	minimum = 6
	maximum = 88
Slowest flit = 7919
Fragmentation average = 5.03119
	minimum = 0
	maximum = 54
Injected packet rate average = 0.00389844
	minimum = 0.0005 (at node 14)
	maximum = 0.008 (at node 23)
Accepted packet rate average = 0.00375781
	minimum = 0.001 (at node 37)
	maximum = 0.007 (at node 12)
Injected flit rate average = 0.0774531
	minimum = 0.01 (at node 14)
	maximum = 0.16 (at node 23)
Accepted flit rate average= 0.0758203
	minimum = 0.02 (at node 37)
	maximum = 0.14 (at node 12)
Injected packet length average = 19.8677
Accepted packet length average = 20.1767
Total in-flight flits = 275 (0 measured)
latency change    = 0.00711252
throughput change = 0.062339
Class 0:
Packet latency average = 51.9624
	minimum = 25
	maximum = 105
Network latency average = 50.6767
	minimum = 25
	maximum = 98
Slowest packet = 501
Flit latency average = 29.249
	minimum = 6
	maximum = 79
Slowest flit = 10039
Fragmentation average = 4.47368
	minimum = 0
	maximum = 44
Injected packet rate average = 0.00414063
	minimum = 0 (at node 36)
	maximum = 0.01 (at node 40)
Accepted packet rate average = 0.00415625
	minimum = 0 (at node 25)
	maximum = 0.009 (at node 6)
Injected flit rate average = 0.0836406
	minimum = 0 (at node 36)
	maximum = 0.198 (at node 40)
Accepted flit rate average= 0.0833437
	minimum = 0 (at node 25)
	maximum = 0.18 (at node 6)
Injected packet length average = 20.2
Accepted packet length average = 20.0526
Total in-flight flits = 241 (0 measured)
latency change    = 0.0139201
throughput change = 0.09027
Warmed up ...Time used is 3000 cycles
Class 0:
Packet latency average = 52.2208
	minimum = 25
	maximum = 104
Network latency average = 51.2917
	minimum = 25
	maximum = 99
Slowest packet = 767
Flit latency average = 29.6153
	minimum = 6
	maximum = 84
Slowest flit = 14919
Fragmentation average = 5.62083
	minimum = 0
	maximum = 50
Injected packet rate average = 0.00392188
	minimum = 0.001 (at node 4)
	maximum = 0.008 (at node 1)
Accepted packet rate average = 0.00401563
	minimum = 0 (at node 22)
	maximum = 0.009 (at node 31)
Injected flit rate average = 0.0780625
	minimum = 0.02 (at node 4)
	maximum = 0.16 (at node 1)
Accepted flit rate average= 0.0796875
	minimum = 0 (at node 22)
	maximum = 0.175 (at node 31)
Injected packet length average = 19.9044
Accepted packet length average = 19.8444
Total in-flight flits = 161 (161 measured)
latency change    = 0.00494874
throughput change = 0.0458824
Class 0:
Packet latency average = 52.778
	minimum = 25
	maximum = 165
Network latency average = 51.9784
	minimum = 25
	maximum = 165
Slowest packet = 1142
Flit latency average = 29.8018
	minimum = 6
	maximum = 140
Slowest flit = 22859
Fragmentation average = 6.34698
	minimum = 0
	maximum = 116
Injected packet rate average = 0.00373437
	minimum = 0.001 (at node 4)
	maximum = 0.006 (at node 1)
Accepted packet rate average = 0.00375781
	minimum = 0.0005 (at node 43)
	maximum = 0.007 (at node 27)
Injected flit rate average = 0.0743984
	minimum = 0.02 (at node 4)
	maximum = 0.12 (at node 1)
Accepted flit rate average= 0.0749531
	minimum = 0.019 (at node 43)
	maximum = 0.14 (at node 27)
Injected packet length average = 19.9226
Accepted packet length average = 19.9459
Total in-flight flits = 207 (207 measured)
latency change    = 0.0105571
throughput change = 0.0631645
Class 0:
Packet latency average = 52.6381
	minimum = 25
	maximum = 165
Network latency average = 51.9004
	minimum = 25
	maximum = 165
Slowest packet = 1142
Flit latency average = 29.6881
	minimum = 6
	maximum = 140
Slowest flit = 22859
Fragmentation average = 6.1655
	minimum = 0
	maximum = 116
Injected packet rate average = 0.00375
	minimum = 0.00133333 (at node 4)
	maximum = 0.00633333 (at node 29)
Accepted packet rate average = 0.00380208
	minimum = 0.00133333 (at node 19)
	maximum = 0.00766667 (at node 27)
Injected flit rate average = 0.0750312
	minimum = 0.0266667 (at node 4)
	maximum = 0.126667 (at node 29)
Accepted flit rate average= 0.0757552
	minimum = 0.0266667 (at node 19)
	maximum = 0.153333 (at node 27)
Injected packet length average = 20.0083
Accepted packet length average = 19.9247
Total in-flight flits = 96 (96 measured)
latency change    = 0.00265717
throughput change = 0.0105878
Class 0:
Packet latency average = 52.643
	minimum = 25
	maximum = 165
Network latency average = 51.9064
	minimum = 25
	maximum = 165
Slowest packet = 1142
Flit latency average = 29.6675
	minimum = 6
	maximum = 140
Slowest flit = 22859
Fragmentation average = 6.19342
	minimum = 0
	maximum = 116
Injected packet rate average = 0.00385547
	minimum = 0.002 (at node 4)
	maximum = 0.006 (at node 29)
Accepted packet rate average = 0.00386328
	minimum = 0.002 (at node 10)
	maximum = 0.00625 (at node 27)
Injected flit rate average = 0.0768242
	minimum = 0.03625 (at node 4)
	maximum = 0.116 (at node 29)
Accepted flit rate average= 0.077043
	minimum = 0.04 (at node 10)
	maximum = 0.125 (at node 27)
Injected packet length average = 19.926
Accepted packet length average = 19.9424
Total in-flight flits = 258 (258 measured)
latency change    = 9.22335e-05
throughput change = 0.0167148
Class 0:
Packet latency average = 52.7159
	minimum = 25
	maximum = 165
Network latency average = 51.918
	minimum = 25
	maximum = 165
Slowest packet = 1142
Flit latency average = 29.677
	minimum = 6
	maximum = 140
Slowest flit = 22859
Fragmentation average = 6.11282
	minimum = 0
	maximum = 116
Injected packet rate average = 0.0038875
	minimum = 0.0024 (at node 4)
	maximum = 0.0056 (at node 50)
Accepted packet rate average = 0.00390312
	minimum = 0.0022 (at node 53)
	maximum = 0.006 (at node 27)
Injected flit rate average = 0.0776188
	minimum = 0.048 (at node 4)
	maximum = 0.112 (at node 50)
Accepted flit rate average= 0.0779719
	minimum = 0.044 (at node 53)
	maximum = 0.12 (at node 27)
Injected packet length average = 19.9662
Accepted packet length average = 19.9768
Total in-flight flits = 170 (170 measured)
latency change    = 0.00138298
throughput change = 0.0119134
Draining all recorded packets ...
Draining remaining packets ...
Time taken is 8101 cycles
====== Overall Traffic Statistics ======
====== Traffic class 0 ======
Packet latency average = 52.7315 (1 samples)
	minimum = 25 (1 samples)
	maximum = 165 (1 samples)
Network latency average = 51.9413 (1 samples)
	minimum = 25 (1 samples)
	maximum = 165 (1 samples)
Flit latency average = 29.6867 (1 samples)
	minimum = 6 (1 samples)
	maximum = 140 (1 samples)
Fragmentation average = 6.12058 (1 samples)
	minimum = 0 (1 samples)
	maximum = 116 (1 samples)
Injected packet rate average = 0.0038875 (1 samples)
	minimum = 0.0024 (1 samples)
	maximum = 0.0056 (1 samples)
Accepted packet rate average = 0.00390312 (1 samples)
	minimum = 0.0022 (1 samples)
	maximum = 0.006 (1 samples)
Injected flit rate average = 0.0776188 (1 samples)
	minimum = 0.048 (1 samples)
	maximum = 0.112 (1 samples)
Accepted flit rate average = 0.0779719 (1 samples)
	minimum = 0.044 (1 samples)
	maximum = 0.12 (1 samples)
Injected packet size average = 19.9662 (1 samples)
Accepted packet size average = 19.9768 (1 samples)
Hops average = 6.19212 (1 samples)
Total run time 1.83106
