BEGIN Configuration File: ../../IL2236_project/verify/figure1/dor/mesh88_lat
// $Id$

// Copyright (c) 2007-2015, Trustees of The Leland Stanford Junior University
// All rights reserved.
//
// Redistribution and use in source and binary forms, with or without
// modification, are permitted provided that the following conditions are met:
//
// Redistributions of source code must retain the above copyright notice, this
// list of conditions and the following disclaimer.
// Redistributions in binary form must reproduce the above copyright notice,
// this list of conditions and the following disclaimer in the documentation
// and/or other materials provided with the distribution.
//
// THIS SOFTWARE IS PROVIDED BY THE COPYRIGHT HOLDERS AND CONTRIBUTORS "AS IS"
// AND ANY EXPRESS OR IMPLIED WARRANTIES, INCLUDING, BUT NOT LIMITED TO, THE
// IMPLIED WARRANTIES OF MERCHANTABILITY AND FITNESS FOR A PARTICULAR PURPOSE
// ARE DISCLAIMED. IN NO EVENT SHALL THE COPYRIGHT OWNER OR CONTRIBUTORS BE
// LIABLE FOR ANY DIRECT, INDIRECT, INCIDENTAL, SPECIAL, EXEMPLARY, OR
// CONSEQUENTIAL DAMAGES (INCLUDING, BUT NOT LIMITED TO, PROCUREMENT OF
// SUBSTITUTE GOODS OR SERVICES; LOSS OF USE, DATA, OR PROFITS; OR BUSINESS
// INTERRUPTION) HOWEVER CAUSED AND ON ANY THEORY OF LIABILITY, WHETHER IN
// CONTRACT, STRICT LIABILITY, OR TORT (INCLUDING NEGLIGENCE OR OTHERWISE)
// ARISING IN ANY WAY OUT OF THE USE OF THIS SOFTWARE, EVEN IF ADVISED OF THE
// POSSIBILITY OF SUCH DAMAGE.

//8X8 mesh with 20 flits per packet under injection mode
//injection rate here is packet per cycle, NOT flit per cycle

// Topology

topology = mesh;
k = 8;
n = 2;

// Routing
routing_function = dor;

// Flow control
num_vcs     = 8;
vc_buf_size = 8;
wait_for_tail_credit = 1;

// Router architecture
vc_allocator = islip;
sw_allocator = islip;
alloc_iters  = 1;

credit_delay   = 2;
routing_delay  = 0;
vc_alloc_delay = 1;
sw_alloc_delay = 1;

input_speedup     = 2;
output_speedup    = 1;
internal_speedup  = 1.0;


// Traffic
traffic = uniform;
packet_size = 20;


// Simulation
sim_type = latency;

injection_rate = .004;


END Configuration File: ../../IL2236_project/verify/figure1/dor/mesh88_lat
Class 0:
Packet latency average = 51.6035
	minimum = 25
	maximum = 100
Network latency average = 50.5374
	minimum = 25
	maximum = 100
Slowest packet = 73
Flit latency average = 28.5657
	minimum = 6
	maximum = 81
Slowest flit = 1479
Fragmentation average = 5.39207
	minimum = 0
	maximum = 43
Injected packet rate average = 0.00364063
	minimum = 0 (at node 35)
	maximum = 0.011 (at node 23)
Accepted packet rate average = 0.00354688
	minimum = 0 (at node 29)
	maximum = 0.009 (at node 18)
Injected flit rate average = 0.0720781
	minimum = 0 (at node 35)
	maximum = 0.22 (at node 23)
Accepted flit rate average= 0.0710937
	minimum = 0 (at node 29)
	maximum = 0.18 (at node 18)
Injected packet length average = 19.7983
Accepted packet length average = 20.0441
Total in-flight flits = 110 (0 measured)
latency change    = 1
throughput change = 1
Class 0:
Packet latency average = 51.2391
	minimum = 25
	maximum = 107
Network latency average = 50.4116
	minimum = 25
	maximum = 107
Slowest packet = 395
Flit latency average = 28.6969
	minimum = 6
	maximum = 88
Slowest flit = 7919
Fragmentation average = 5.03119
	minimum = 0
	maximum = 54
Injected packet rate average = 0.00389844
	minimum = 0.0005 (at node 14)
	maximum = 0.008 (at node 23)
Accepted packet rate average = 0.00375781
	minimum = 0.001 (at node 37)
	maximum = 0.007 (at node 12)
Injected flit rate average = 0.0774531
	minimum = 0.01 (at node 14)
	maximum = 0.16 (at node 23)
Accepted flit rate average= 0.0758203
	minimum = 0.02 (at node 37)
	maximum = 0.14 (at node 12)
Injected packet length average = 19.8677
Accepted packet length average = 20.1767
Total in-flight flits = 275 (0 measured)
latency change    = 0.00711252
throughput change = 0.062339
Class 0:
Packet latency average = 51.9624
	minimum = 25
	maximum = 105
Network latency average = 50.6767
	minimum = 25
	maximum = 98
Slowest packet = 501
Flit latency average = 29.249
	minimum = 6
	maximum = 79
Slowest flit = 10039
Fragmentation average = 4.47368
	minimum = 0
	maximum = 44
Injected packet rate average = 0.00414063
	minimum = 0 (at node 36)
	maximum = 0.01 (at node 40)
Accepted packet rate average = 0.00415625
	minimum = 0 (at node 25)
	maximum = 0.009 (at node 6)
Injected flit rate average = 0.0836406
	minimum = 0 (at node 36)
	maximum = 0.198 (at node 40)
Accepted flit rate average= 0.0833437
	minimum = 0 (at node 25)
	maximum = 0.18 (at node 6)
Injected packet length average = 20.2
Accepted packet length average = 20.0526
Total in-flight flits = 241 (0 measured)
latency change    = 0.0139201
throughput change = 0.09027
Warmed up ...Time used is 3000 cycles
