BEGIN Configuration File: ../../IL2236_project/verify/figure1/dor/mesh88_lat
// $Id$

// Copyright (c) 2007-2015, Trustees of The Leland Stanford Junior University
// All rights reserved.
//
// Redistribution and use in source and binary forms, with or without
// modification, are permitted provided that the following conditions are met:
//
// Redistributions of source code must retain the above copyright notice, this
// list of conditions and the following disclaimer.
// Redistributions in binary form must reproduce the above copyright notice,
// this list of conditions and the following disclaimer in the documentation
// and/or other materials provided with the distribution.
//
// THIS SOFTWARE IS PROVIDED BY THE COPYRIGHT HOLDERS AND CONTRIBUTORS "AS IS"
// AND ANY EXPRESS OR IMPLIED WARRANTIES, INCLUDING, BUT NOT LIMITED TO, THE
// IMPLIED WARRANTIES OF MERCHANTABILITY AND FITNESS FOR A PARTICULAR PURPOSE
// ARE DISCLAIMED. IN NO EVENT SHALL THE COPYRIGHT OWNER OR CONTRIBUTORS BE
// LIABLE FOR ANY DIRECT, INDIRECT, INCIDENTAL, SPECIAL, EXEMPLARY, OR
// CONSEQUENTIAL DAMAGES (INCLUDING, BUT NOT LIMITED TO, PROCUREMENT OF
// SUBSTITUTE GOODS OR SERVICES; LOSS OF USE, DATA, OR PROFITS; OR BUSINESS
// INTERRUPTION) HOWEVER CAUSED AND ON ANY THEORY OF LIABILITY, WHETHER IN
// CONTRACT, STRICT LIABILITY, OR TORT (INCLUDING NEGLIGENCE OR OTHERWISE)
// ARISING IN ANY WAY OUT OF THE USE OF THIS SOFTWARE, EVEN IF ADVISED OF THE
// POSSIBILITY OF SUCH DAMAGE.

//8X8 mesh with 20 flits per packet under injection mode
//injection rate here is packet per cycle, NOT flit per cycle

// Topology

topology = mesh;
k = 8;
n = 2;

// Routing
routing_function = dor;

// Flow control
num_vcs     = 8;
vc_buf_size = 8;
wait_for_tail_credit = 1;

// Router architecture
vc_allocator = islip;
sw_allocator = islip;
alloc_iters  = 1;

credit_delay   = 2;
routing_delay  = 0;
vc_alloc_delay = 1;
sw_alloc_delay = 1;

input_speedup     = 2;
output_speedup    = 1;
internal_speedup  = 1.0;


// Traffic
traffic = uniform;
packet_size = 20;


// Simulation
sim_type = latency;

injection_rate = .006;


END Configuration File: ../../IL2236_project/verify/figure1/dor/mesh88_lat
Class 0:
Packet latency average = 56.2968
	minimum = 25
	maximum = 117
Network latency average = 55.3718
	minimum = 25
	maximum = 117
Slowest packet = 128
Flit latency average = 31.1867
	minimum = 6
	maximum = 98
Slowest flit = 2579
Fragmentation average = 9.45821
	minimum = 0
	maximum = 46
Injected packet rate average = 0.00567187
	minimum = 0.002 (at node 0)
	maximum = 0.011 (at node 19)
Accepted packet rate average = 0.00542187
	minimum = 0.001 (at node 29)
	maximum = 0.012 (at node 18)
Injected flit rate average = 0.112391
	minimum = 0.04 (at node 0)
	maximum = 0.22 (at node 19)
Accepted flit rate average= 0.109656
	minimum = 0.02 (at node 29)
	maximum = 0.24 (at node 18)
Injected packet length average = 19.8154
Accepted packet length average = 20.2248
Total in-flight flits = 242 (0 measured)
latency change    = 1
throughput change = 1
Class 0:
Packet latency average = 56.19
	minimum = 25
	maximum = 159
Network latency average = 55.2899
	minimum = 25
	maximum = 159
Slowest packet = 624
Flit latency average = 31.3591
	minimum = 6
	maximum = 140
Slowest flit = 12499
Fragmentation average = 9.09431
	minimum = 0
	maximum = 79
Injected packet rate average = 0.00580469
	minimum = 0.003 (at node 11)
	maximum = 0.01 (at node 60)
Accepted packet rate average = 0.00563281
	minimum = 0.0025 (at node 11)
	maximum = 0.01 (at node 12)
Injected flit rate average = 0.115305
	minimum = 0.056 (at node 37)
	maximum = 0.2 (at node 60)
Accepted flit rate average= 0.113687
	minimum = 0.05 (at node 54)
	maximum = 0.2 (at node 12)
Injected packet length average = 19.8641
Accepted packet length average = 20.1831
Total in-flight flits = 308 (0 measured)
latency change    = 0.00190098
throughput change = 0.035459
Class 0:
Packet latency average = 60.1738
	minimum = 25
	maximum = 151
Network latency average = 58.9358
	minimum = 25
	maximum = 151
Slowest packet = 794
Flit latency average = 33.5342
	minimum = 6
	maximum = 132
Slowest flit = 15899
Fragmentation average = 11.9037
	minimum = 0
	maximum = 100
Injected packet rate average = 0.00590625
	minimum = 0.002 (at node 21)
	maximum = 0.014 (at node 34)
Accepted packet rate average = 0.00584375
	minimum = 0 (at node 43)
	maximum = 0.012 (at node 31)
Injected flit rate average = 0.118578
	minimum = 0.04 (at node 21)
	maximum = 0.277 (at node 34)
Accepted flit rate average= 0.117203
	minimum = 0 (at node 43)
	maximum = 0.24 (at node 31)
Injected packet length average = 20.0767
Accepted packet length average = 20.0561
Total in-flight flits = 367 (0 measured)
latency change    = 0.0662046
throughput change = 0.029996
Warmed up ...Time used is 3000 cycles
Class 0:
Packet latency average = 55.4157
	minimum = 25
	maximum = 120
Network latency average = 54.064
	minimum = 25
	maximum = 120
Slowest packet = 1213
Flit latency average = 31.1046
	minimum = 6
	maximum = 99
Slowest flit = 24278
Fragmentation average = 8.52616
	minimum = 0
	maximum = 64
Injected packet rate average = 0.00575
	minimum = 0.001 (at node 21)
	maximum = 0.012 (at node 10)
Accepted packet rate average = 0.00578125
	minimum = 0 (at node 10)
	maximum = 0.012 (at node 27)
Injected flit rate average = 0.114359
	minimum = 0.02 (at node 21)
	maximum = 0.24 (at node 10)
Accepted flit rate average= 0.115219
	minimum = 0 (at node 10)
	maximum = 0.236 (at node 27)
Injected packet length average = 19.8886
Accepted packet length average = 19.9297
Total in-flight flits = 353 (353 measured)
latency change    = 0.0858619
throughput change = 0.0172227
Class 0:
Packet latency average = 57.0129
	minimum = 25
	maximum = 148
Network latency average = 55.7382
	minimum = 25
	maximum = 148
Slowest packet = 1691
Flit latency average = 31.6543
	minimum = 6
	maximum = 123
Slowest flit = 33838
Fragmentation average = 9.77682
	minimum = 0
	maximum = 90
Injected packet rate average = 0.005625
	minimum = 0.003 (at node 38)
	maximum = 0.0095 (at node 41)
Accepted packet rate average = 0.00566406
	minimum = 0.003 (at node 10)
	maximum = 0.01 (at node 49)
Injected flit rate average = 0.112312
	minimum = 0.057 (at node 46)
	maximum = 0.19 (at node 41)
Accepted flit rate average= 0.112883
	minimum = 0.0505 (at node 53)
	maximum = 0.191 (at node 49)
Injected packet length average = 19.9667
Accepted packet length average = 19.9297
Total in-flight flits = 318 (318 measured)
latency change    = 0.0280143
throughput change = 0.0206935
Class 0:
Packet latency average = 56.6903
	minimum = 25
	maximum = 148
Network latency average = 55.4844
	minimum = 25
	maximum = 148
Slowest packet = 1691
Flit latency average = 31.345
	minimum = 6
	maximum = 123
Slowest flit = 33838
Fragmentation average = 9.62984
	minimum = 0
	maximum = 90
Injected packet rate average = 0.00561458
	minimum = 0.003 (at node 38)
	maximum = 0.00866667 (at node 45)
Accepted packet rate average = 0.00565104
	minimum = 0.00266667 (at node 53)
	maximum = 0.009 (at node 40)
Injected flit rate average = 0.112208
	minimum = 0.06 (at node 38)
	maximum = 0.173333 (at node 45)
Accepted flit rate average= 0.112568
	minimum = 0.047 (at node 53)
	maximum = 0.186333 (at node 40)
Injected packet length average = 19.9852
Accepted packet length average = 19.9198
Total in-flight flits = 314 (314 measured)
latency change    = 0.0056906
throughput change = 0.00279924
Class 0:
Packet latency average = 56.7146
	minimum = 25
	maximum = 148
Network latency average = 55.4417
	minimum = 25
	maximum = 148
Slowest packet = 1691
Flit latency average = 31.3517
	minimum = 6
	maximum = 123
Slowest flit = 33838
Fragmentation average = 9.50139
	minimum = 0
	maximum = 90
Injected packet rate average = 0.00573828
	minimum = 0.00325 (at node 46)
	maximum = 0.0085 (at node 41)
Accepted packet rate average = 0.00572656
	minimum = 0.00325 (at node 10)
	maximum = 0.008 (at node 40)
Injected flit rate average = 0.114512
	minimum = 0.06025 (at node 46)
	maximum = 0.17 (at node 41)
Accepted flit rate average= 0.114535
	minimum = 0.065 (at node 10)
	maximum = 0.16 (at node 40)
Injected packet length average = 19.9558
Accepted packet length average = 20.0007
Total in-flight flits = 426 (426 measured)
latency change    = 0.000428629
throughput change = 0.0171777
Draining all recorded packets ...
Draining remaining packets ...
Time taken is 7226 cycles
====== Overall Traffic Statistics ======
====== Traffic class 0 ======
Packet latency average = 57.3413 (1 samples)
	minimum = 25 (1 samples)
	maximum = 213 (1 samples)
Network latency average = 56.0061 (1 samples)
	minimum = 25 (1 samples)
	maximum = 205 (1 samples)
Flit latency average = 31.7348 (1 samples)
	minimum = 6 (1 samples)
	maximum = 183 (1 samples)
Fragmentation average = 9.94154 (1 samples)
	minimum = 0 (1 samples)
	maximum = 139 (1 samples)
Injected packet rate average = 0.00573828 (1 samples)
	minimum = 0.00325 (1 samples)
	maximum = 0.0085 (1 samples)
Accepted packet rate average = 0.00572656 (1 samples)
	minimum = 0.00325 (1 samples)
	maximum = 0.008 (1 samples)
Injected flit rate average = 0.114512 (1 samples)
	minimum = 0.06025 (1 samples)
	maximum = 0.17 (1 samples)
Accepted flit rate average = 0.114535 (1 samples)
	minimum = 0.065 (1 samples)
	maximum = 0.16 (1 samples)
Injected packet size average = 19.9558 (1 samples)
Accepted packet size average = 20.0007 (1 samples)
Hops average = 6.24065 (1 samples)
Total run time 2.21368
