BEGIN Configuration File: ../../IL2236_project/verify/figure1/dor/mesh88_lat
// $Id$

// Copyright (c) 2007-2015, Trustees of The Leland Stanford Junior University
// All rights reserved.
//
// Redistribution and use in source and binary forms, with or without
// modification, are permitted provided that the following conditions are met:
//
// Redistributions of source code must retain the above copyright notice, this
// list of conditions and the following disclaimer.
// Redistributions in binary form must reproduce the above copyright notice,
// this list of conditions and the following disclaimer in the documentation
// and/or other materials provided with the distribution.
//
// THIS SOFTWARE IS PROVIDED BY THE COPYRIGHT HOLDERS AND CONTRIBUTORS "AS IS"
// AND ANY EXPRESS OR IMPLIED WARRANTIES, INCLUDING, BUT NOT LIMITED TO, THE
// IMPLIED WARRANTIES OF MERCHANTABILITY AND FITNESS FOR A PARTICULAR PURPOSE
// ARE DISCLAIMED. IN NO EVENT SHALL THE COPYRIGHT OWNER OR CONTRIBUTORS BE
// LIABLE FOR ANY DIRECT, INDIRECT, INCIDENTAL, SPECIAL, EXEMPLARY, OR
// CONSEQUENTIAL DAMAGES (INCLUDING, BUT NOT LIMITED TO, PROCUREMENT OF
// SUBSTITUTE GOODS OR SERVICES; LOSS OF USE, DATA, OR PROFITS; OR BUSINESS
// INTERRUPTION) HOWEVER CAUSED AND ON ANY THEORY OF LIABILITY, WHETHER IN
// CONTRACT, STRICT LIABILITY, OR TORT (INCLUDING NEGLIGENCE OR OTHERWISE)
// ARISING IN ANY WAY OUT OF THE USE OF THIS SOFTWARE, EVEN IF ADVISED OF THE
// POSSIBILITY OF SUCH DAMAGE.

//8X8 mesh with 20 flits per packet under injection mode
//injection rate here is packet per cycle, NOT flit per cycle

// Topology

topology = mesh;
k = 8;
n = 2;

// Routing
routing_function = dor;

// Flow control
num_vcs     = 8;
vc_buf_size = 8;
wait_for_tail_credit = 1;

// Router architecture
vc_allocator = islip;
sw_allocator = islip;
alloc_iters  = 1;

credit_delay   = 2;
routing_delay  = 0;
vc_alloc_delay = 1;
sw_alloc_delay = 1;

input_speedup     = 2;
output_speedup    = 1;
internal_speedup  = 1.0;


// Traffic
traffic = uniform;
packet_size = 20;


// Simulation
sim_type = latency;

injection_rate = .009;


END Configuration File: ../../IL2236_project/verify/figure1/dor/mesh88_lat
Class 0:
Packet latency average = 67.6324
	minimum = 25
	maximum = 210
Network latency average = 64.8343
	minimum = 25
	maximum = 192
Slowest packet = 63
Flit latency average = 35.6763
	minimum = 6
	maximum = 172
Slowest flit = 1279
Fragmentation average = 18.0038
	minimum = 0
	maximum = 128
Injected packet rate average = 0.00871875
	minimum = 0.003 (at node 20)
	maximum = 0.015 (at node 39)
Accepted packet rate average = 0.00820313
	minimum = 0.003 (at node 29)
	maximum = 0.014 (at node 12)
Injected flit rate average = 0.172875
	minimum = 0.058 (at node 61)
	maximum = 0.292 (at node 39)
Accepted flit rate average= 0.167297
	minimum = 0.06 (at node 37)
	maximum = 0.28 (at node 12)
Injected packet length average = 19.828
Accepted packet length average = 20.3943
Total in-flight flits = 453 (0 measured)
latency change    = 1
throughput change = 1
Class 0:
Packet latency average = 66.3838
	minimum = 25
	maximum = 210
Network latency average = 63.6422
	minimum = 25
	maximum = 192
Slowest packet = 63
Flit latency average = 35.1548
	minimum = 6
	maximum = 172
Slowest flit = 1279
Fragmentation average = 17.3039
	minimum = 0
	maximum = 128
Injected packet rate average = 0.00878906
	minimum = 0.0035 (at node 57)
	maximum = 0.013 (at node 39)
Accepted packet rate average = 0.00840625
	minimum = 0.004 (at node 43)
	maximum = 0.0125 (at node 12)
Injected flit rate average = 0.174695
	minimum = 0.07 (at node 57)
	maximum = 0.26 (at node 39)
Accepted flit rate average= 0.170883
	minimum = 0.08 (at node 43)
	maximum = 0.25 (at node 12)
Injected packet length average = 19.8764
Accepted packet length average = 20.3281
Total in-flight flits = 627 (0 measured)
latency change    = 0.0188081
throughput change = 0.0209848
Class 0:
Packet latency average = 70.8454
	minimum = 25
	maximum = 186
Network latency average = 67.4013
	minimum = 25
	maximum = 171
Slowest packet = 1041
Flit latency average = 37.3072
	minimum = 6
	maximum = 147
Slowest flit = 30919
Fragmentation average = 20.1283
	minimum = 0
	maximum = 115
Injected packet rate average = 0.00925
	minimum = 0.002 (at node 57)
	maximum = 0.021 (at node 7)
Accepted packet rate average = 0.0095
	minimum = 0.003 (at node 7)
	maximum = 0.018 (at node 49)
Injected flit rate average = 0.185312
	minimum = 0.04 (at node 57)
	maximum = 0.42 (at node 7)
Accepted flit rate average= 0.187406
	minimum = 0.06 (at node 7)
	maximum = 0.348 (at node 49)
Injected packet length average = 20.0338
Accepted packet length average = 19.727
Total in-flight flits = 473 (0 measured)
latency change    = 0.0629761
throughput change = 0.0881691
Warmed up ...Time used is 3000 cycles
Class 0:
Packet latency average = 63.0299
	minimum = 25
	maximum = 153
Network latency average = 60.4486
	minimum = 25
	maximum = 153
Slowest packet = 2179
Flit latency average = 33.5305
	minimum = 6
	maximum = 134
Slowest flit = 43599
Fragmentation average = 14.8131
	minimum = 0
	maximum = 83
Injected packet rate average = 0.00903125
	minimum = 0.003 (at node 38)
	maximum = 0.017 (at node 53)
Accepted packet rate average = 0.008875
	minimum = 0.004 (at node 17)
	maximum = 0.018 (at node 47)
Injected flit rate average = 0.180172
	minimum = 0.06 (at node 38)
	maximum = 0.328 (at node 53)
Accepted flit rate average= 0.177828
	minimum = 0.063 (at node 53)
	maximum = 0.354 (at node 47)
Injected packet length average = 19.9498
Accepted packet length average = 20.037
Total in-flight flits = 652 (652 measured)
latency change    = 0.123997
throughput change = 0.0538617
Class 0:
Packet latency average = 64.2318
	minimum = 25
	maximum = 206
Network latency average = 61.8914
	minimum = 25
	maximum = 193
Slowest packet = 2258
Flit latency average = 34.3056
	minimum = 6
	maximum = 174
Slowest flit = 45299
Fragmentation average = 16.0675
	minimum = 0
	maximum = 130
Injected packet rate average = 0.00878125
	minimum = 0.0035 (at node 40)
	maximum = 0.014 (at node 31)
Accepted packet rate average = 0.00882031
	minimum = 0.004 (at node 17)
	maximum = 0.013 (at node 44)
Injected flit rate average = 0.175516
	minimum = 0.07 (at node 40)
	maximum = 0.28 (at node 31)
Accepted flit rate average= 0.175984
	minimum = 0.08 (at node 17)
	maximum = 0.254 (at node 47)
Injected packet length average = 19.9875
Accepted packet length average = 19.9522
Total in-flight flits = 427 (427 measured)
latency change    = 0.0187111
throughput change = 0.0104768
Class 0:
Packet latency average = 64.7471
	minimum = 25
	maximum = 206
Network latency average = 62.3247
	minimum = 25
	maximum = 193
Slowest packet = 2258
Flit latency average = 34.6025
	minimum = 6
	maximum = 174
Slowest flit = 45299
Fragmentation average = 16.1381
	minimum = 0
	maximum = 130
Injected packet rate average = 0.00865625
	minimum = 0.00433333 (at node 60)
	maximum = 0.0123333 (at node 19)
Accepted packet rate average = 0.00865625
	minimum = 0.00566667 (at node 17)
	maximum = 0.0123333 (at node 22)
Injected flit rate average = 0.173083
	minimum = 0.0866667 (at node 60)
	maximum = 0.252333 (at node 19)
Accepted flit rate average= 0.173245
	minimum = 0.113333 (at node 17)
	maximum = 0.249667 (at node 22)
Injected packet length average = 19.9952
Accepted packet length average = 20.0138
Total in-flight flits = 450 (450 measured)
latency change    = 0.00795916
throughput change = 0.0158134
Class 0:
Packet latency average = 64.695
	minimum = 25
	maximum = 206
Network latency average = 62.2647
	minimum = 25
	maximum = 193
Slowest packet = 2258
Flit latency average = 34.5053
	minimum = 6
	maximum = 174
Slowest flit = 45299
Fragmentation average = 16.1081
	minimum = 0
	maximum = 130
Injected packet rate average = 0.00877344
	minimum = 0.005 (at node 40)
	maximum = 0.0115 (at node 23)
Accepted packet rate average = 0.00876172
	minimum = 0.0055 (at node 15)
	maximum = 0.0125 (at node 22)
Injected flit rate average = 0.175336
	minimum = 0.1 (at node 40)
	maximum = 0.23 (at node 23)
Accepted flit rate average= 0.175145
	minimum = 0.11675 (at node 15)
	maximum = 0.25 (at node 22)
Injected packet length average = 19.9849
Accepted packet length average = 19.9897
Total in-flight flits = 556 (556 measured)
latency change    = 0.000804722
throughput change = 0.0108467
Draining all recorded packets ...
Draining remaining packets ...
Time taken is 7171 cycles
====== Overall Traffic Statistics ======
====== Traffic class 0 ======
Packet latency average = 64.7565 (1 samples)
	minimum = 25 (1 samples)
	maximum = 206 (1 samples)
Network latency average = 62.3442 (1 samples)
	minimum = 25 (1 samples)
	maximum = 193 (1 samples)
Flit latency average = 34.5057 (1 samples)
	minimum = 6 (1 samples)
	maximum = 174 (1 samples)
Fragmentation average = 16.1581 (1 samples)
	minimum = 0 (1 samples)
	maximum = 130 (1 samples)
Injected packet rate average = 0.00877344 (1 samples)
	minimum = 0.005 (1 samples)
	maximum = 0.0115 (1 samples)
Accepted packet rate average = 0.00876172 (1 samples)
	minimum = 0.0055 (1 samples)
	maximum = 0.0125 (1 samples)
Injected flit rate average = 0.175336 (1 samples)
	minimum = 0.1 (1 samples)
	maximum = 0.23 (1 samples)
Accepted flit rate average = 0.175145 (1 samples)
	minimum = 0.11675 (1 samples)
	maximum = 0.25 (1 samples)
Injected packet size average = 19.9849 (1 samples)
Accepted packet size average = 19.9897 (1 samples)
Hops average = 6.23063 (1 samples)
Total run time 2.97895
