BEGIN Configuration File: ../../IL2236_project/verify/figure1/dor/mesh88_lat
// $Id$

// Copyright (c) 2007-2015, Trustees of The Leland Stanford Junior University
// All rights reserved.
//
// Redistribution and use in source and binary forms, with or without
// modification, are permitted provided that the following conditions are met:
//
// Redistributions of source code must retain the above copyright notice, this
// list of conditions and the following disclaimer.
// Redistributions in binary form must reproduce the above copyright notice,
// this list of conditions and the following disclaimer in the documentation
// and/or other materials provided with the distribution.
//
// THIS SOFTWARE IS PROVIDED BY THE COPYRIGHT HOLDERS AND CONTRIBUTORS "AS IS"
// AND ANY EXPRESS OR IMPLIED WARRANTIES, INCLUDING, BUT NOT LIMITED TO, THE
// IMPLIED WARRANTIES OF MERCHANTABILITY AND FITNESS FOR A PARTICULAR PURPOSE
// ARE DISCLAIMED. IN NO EVENT SHALL THE COPYRIGHT OWNER OR CONTRIBUTORS BE
// LIABLE FOR ANY DIRECT, INDIRECT, INCIDENTAL, SPECIAL, EXEMPLARY, OR
// CONSEQUENTIAL DAMAGES (INCLUDING, BUT NOT LIMITED TO, PROCUREMENT OF
// SUBSTITUTE GOODS OR SERVICES; LOSS OF USE, DATA, OR PROFITS; OR BUSINESS
// INTERRUPTION) HOWEVER CAUSED AND ON ANY THEORY OF LIABILITY, WHETHER IN
// CONTRACT, STRICT LIABILITY, OR TORT (INCLUDING NEGLIGENCE OR OTHERWISE)
// ARISING IN ANY WAY OUT OF THE USE OF THIS SOFTWARE, EVEN IF ADVISED OF THE
// POSSIBILITY OF SUCH DAMAGE.

//8X8 mesh with 20 flits per packet under injection mode
//injection rate here is packet per cycle, NOT flit per cycle

// Topology

topology = mesh;
k = 8;
n = 2;

// Routing
routing_function = dor;

// Flow control
num_vcs     = 8;
vc_buf_size = 8;
wait_for_tail_credit = 1;

// Router architecture
vc_allocator = islip;
sw_allocator = islip;
alloc_iters  = 1;

credit_delay   = 2;
routing_delay  = 0;
vc_alloc_delay = 1;
sw_alloc_delay = 1;

input_speedup     = 2;
output_speedup    = 1;
internal_speedup  = 1.0;


// Traffic
traffic = uniform;
packet_size = 20;


// Simulation
sim_type = latency;

injection_rate = .011;


END Configuration File: ../../IL2236_project/verify/figure1/dor/mesh88_lat
Class 0:
Packet latency average = 73.55
	minimum = 25
	maximum = 222
Network latency average = 69.4688
	minimum = 25
	maximum = 191
Slowest packet = 432
Flit latency average = 37.8146
	minimum = 6
	maximum = 166
Slowest flit = 10819
Fragmentation average = 22.9187
	minimum = 0
	maximum = 121
Injected packet rate average = 0.0106406
	minimum = 0.002 (at node 8)
	maximum = 0.018 (at node 0)
Accepted packet rate average = 0.01
	minimum = 0.005 (at node 11)
	maximum = 0.018 (at node 12)
Injected flit rate average = 0.210656
	minimum = 0.04 (at node 8)
	maximum = 0.352 (at node 0)
Accepted flit rate average= 0.203453
	minimum = 0.1 (at node 11)
	maximum = 0.36 (at node 12)
Injected packet length average = 19.7974
Accepted packet length average = 20.3453
Total in-flight flits = 599 (0 measured)
latency change    = 1
throughput change = 1
Class 0:
Packet latency average = 74.7421
	minimum = 25
	maximum = 232
Network latency average = 70.7134
	minimum = 25
	maximum = 208
Slowest packet = 432
Flit latency average = 38.6437
	minimum = 6
	maximum = 187
Slowest flit = 20659
Fragmentation average = 23.9027
	minimum = 0
	maximum = 150
Injected packet rate average = 0.0108125
	minimum = 0.0055 (at node 13)
	maximum = 0.0175 (at node 57)
Accepted packet rate average = 0.0103594
	minimum = 0.0065 (at node 29)
	maximum = 0.0155 (at node 27)
Injected flit rate average = 0.214812
	minimum = 0.11 (at node 13)
	maximum = 0.35 (at node 57)
Accepted flit rate average= 0.209742
	minimum = 0.14 (at node 43)
	maximum = 0.31 (at node 27)
Injected packet length average = 19.8671
Accepted packet length average = 20.2466
Total in-flight flits = 833 (0 measured)
latency change    = 0.0159493
throughput change = 0.0299847
Class 0:
Packet latency average = 77.124
	minimum = 25
	maximum = 283
Network latency average = 73.1501
	minimum = 25
	maximum = 283
Slowest packet = 1369
Flit latency average = 39.6169
	minimum = 6
	maximum = 261
Slowest flit = 27839
Fragmentation average = 26.9463
	minimum = 0
	maximum = 220
Injected packet rate average = 0.0112656
	minimum = 0.004 (at node 9)
	maximum = 0.019 (at node 38)
Accepted packet rate average = 0.0113437
	minimum = 0.005 (at node 53)
	maximum = 0.021 (at node 40)
Injected flit rate average = 0.2255
	minimum = 0.08 (at node 9)
	maximum = 0.377 (at node 38)
Accepted flit rate average= 0.225891
	minimum = 0.088 (at node 53)
	maximum = 0.426 (at node 40)
Injected packet length average = 20.0166
Accepted packet length average = 19.9132
Total in-flight flits = 796 (0 measured)
latency change    = 0.0308839
throughput change = 0.0714879
Warmed up ...Time used is 3000 cycles
Class 0:
Packet latency average = 72.257
	minimum = 25
	maximum = 177
Network latency average = 68.4579
	minimum = 25
	maximum = 162
Slowest packet = 2179
Flit latency average = 38.3628
	minimum = 6
	maximum = 143
Slowest flit = 47479
Fragmentation average = 21.7274
	minimum = 0
	maximum = 105
Injected packet rate average = 0.0109062
	minimum = 0.004 (at node 49)
	maximum = 0.02 (at node 60)
Accepted packet rate average = 0.0108594
	minimum = 0.004 (at node 52)
	maximum = 0.018 (at node 29)
Injected flit rate average = 0.218531
	minimum = 0.08 (at node 49)
	maximum = 0.4 (at node 60)
Accepted flit rate average= 0.218328
	minimum = 0.08 (at node 52)
	maximum = 0.349 (at node 29)
Injected packet length average = 20.0372
Accepted packet length average = 20.105
Total in-flight flits = 783 (783 measured)
latency change    = 0.0673562
throughput change = 0.0346382
Class 0:
Packet latency average = 73.3926
	minimum = 25
	maximum = 227
Network latency average = 69.4752
	minimum = 25
	maximum = 219
Slowest packet = 2707
Flit latency average = 38.4425
	minimum = 6
	maximum = 194
Slowest flit = 64799
Fragmentation average = 22.5623
	minimum = 0
	maximum = 146
Injected packet rate average = 0.0107422
	minimum = 0.0065 (at node 32)
	maximum = 0.0155 (at node 23)
Accepted packet rate average = 0.0108203
	minimum = 0.006 (at node 30)
	maximum = 0.0175 (at node 22)
Injected flit rate average = 0.215031
	minimum = 0.13 (at node 32)
	maximum = 0.31 (at node 23)
Accepted flit rate average= 0.216609
	minimum = 0.1275 (at node 30)
	maximum = 0.36 (at node 22)
Injected packet length average = 20.0175
Accepted packet length average = 20.0188
Total in-flight flits = 570 (570 measured)
latency change    = 0.0154734
throughput change = 0.00793479
Class 0:
Packet latency average = 73.7502
	minimum = 25
	maximum = 252
Network latency average = 70.0902
	minimum = 25
	maximum = 246
Slowest packet = 3767
Flit latency average = 38.6422
	minimum = 6
	maximum = 223
Slowest flit = 75359
Fragmentation average = 23.1909
	minimum = 0
	maximum = 176
Injected packet rate average = 0.0106563
	minimum = 0.007 (at node 41)
	maximum = 0.0153333 (at node 47)
Accepted packet rate average = 0.010724
	minimum = 0.007 (at node 30)
	maximum = 0.0156667 (at node 22)
Injected flit rate average = 0.213057
	minimum = 0.136 (at node 41)
	maximum = 0.306667 (at node 47)
Accepted flit rate average= 0.213854
	minimum = 0.14 (at node 30)
	maximum = 0.313667 (at node 22)
Injected packet length average = 19.9936
Accepted packet length average = 19.9417
Total in-flight flits = 656 (656 measured)
latency change    = 0.00484889
throughput change = 0.0128836
Class 0:
Packet latency average = 73.3816
	minimum = 25
	maximum = 252
Network latency average = 69.7683
	minimum = 25
	maximum = 246
Slowest packet = 3767
Flit latency average = 38.4823
	minimum = 6
	maximum = 223
Slowest flit = 75359
Fragmentation average = 22.7828
	minimum = 0
	maximum = 176
Injected packet rate average = 0.0107266
	minimum = 0.007 (at node 38)
	maximum = 0.0145 (at node 63)
Accepted packet rate average = 0.0107617
	minimum = 0.00725 (at node 30)
	maximum = 0.01425 (at node 22)
Injected flit rate average = 0.214586
	minimum = 0.1405 (at node 38)
	maximum = 0.28975 (at node 63)
Accepted flit rate average= 0.215066
	minimum = 0.145 (at node 30)
	maximum = 0.285 (at node 22)
Injected packet length average = 20.0051
Accepted packet length average = 19.9844
Total in-flight flits = 659 (659 measured)
latency change    = 0.00502415
throughput change = 0.00563658
Draining all recorded packets ...
Draining remaining packets ...
Time taken is 7268 cycles
====== Overall Traffic Statistics ======
====== Traffic class 0 ======
Packet latency average = 73.4773 (1 samples)
	minimum = 25 (1 samples)
	maximum = 252 (1 samples)
Network latency average = 69.8432 (1 samples)
	minimum = 25 (1 samples)
	maximum = 246 (1 samples)
Flit latency average = 38.5135 (1 samples)
	minimum = 6 (1 samples)
	maximum = 223 (1 samples)
Fragmentation average = 22.8516 (1 samples)
	minimum = 0 (1 samples)
	maximum = 176 (1 samples)
Injected packet rate average = 0.0107266 (1 samples)
	minimum = 0.007 (1 samples)
	maximum = 0.0145 (1 samples)
Accepted packet rate average = 0.0107617 (1 samples)
	minimum = 0.00725 (1 samples)
	maximum = 0.01425 (1 samples)
Injected flit rate average = 0.214586 (1 samples)
	minimum = 0.1405 (1 samples)
	maximum = 0.28975 (1 samples)
Accepted flit rate average = 0.215066 (1 samples)
	minimum = 0.145 (1 samples)
	maximum = 0.285 (1 samples)
Injected packet size average = 20.0051 (1 samples)
Accepted packet size average = 19.9844 (1 samples)
Hops average = 6.34485 (1 samples)
Total run time 3.54479
