BEGIN Configuration File: ../../IL2236_project/verify/figure1/dor/mesh88_lat
// $Id$

// Copyright (c) 2007-2015, Trustees of The Leland Stanford Junior University
// All rights reserved.
//
// Redistribution and use in source and binary forms, with or without
// modification, are permitted provided that the following conditions are met:
//
// Redistributions of source code must retain the above copyright notice, this
// list of conditions and the following disclaimer.
// Redistributions in binary form must reproduce the above copyright notice,
// this list of conditions and the following disclaimer in the documentation
// and/or other materials provided with the distribution.
//
// THIS SOFTWARE IS PROVIDED BY THE COPYRIGHT HOLDERS AND CONTRIBUTORS "AS IS"
// AND ANY EXPRESS OR IMPLIED WARRANTIES, INCLUDING, BUT NOT LIMITED TO, THE
// IMPLIED WARRANTIES OF MERCHANTABILITY AND FITNESS FOR A PARTICULAR PURPOSE
// ARE DISCLAIMED. IN NO EVENT SHALL THE COPYRIGHT OWNER OR CONTRIBUTORS BE
// LIABLE FOR ANY DIRECT, INDIRECT, INCIDENTAL, SPECIAL, EXEMPLARY, OR
// CONSEQUENTIAL DAMAGES (INCLUDING, BUT NOT LIMITED TO, PROCUREMENT OF
// SUBSTITUTE GOODS OR SERVICES; LOSS OF USE, DATA, OR PROFITS; OR BUSINESS
// INTERRUPTION) HOWEVER CAUSED AND ON ANY THEORY OF LIABILITY, WHETHER IN
// CONTRACT, STRICT LIABILITY, OR TORT (INCLUDING NEGLIGENCE OR OTHERWISE)
// ARISING IN ANY WAY OUT OF THE USE OF THIS SOFTWARE, EVEN IF ADVISED OF THE
// POSSIBILITY OF SUCH DAMAGE.

//8X8 mesh with 20 flits per packet under injection mode
//injection rate here is packet per cycle, NOT flit per cycle

// Topology

topology = mesh;
k = 8;
n = 2;

// Routing
routing_function = dor;

// Flow control
num_vcs     = 8;
vc_buf_size = 8;
wait_for_tail_credit = 1;

// Router architecture
vc_allocator = islip;
sw_allocator = islip;
alloc_iters  = 1;

credit_delay   = 2;
routing_delay  = 0;
vc_alloc_delay = 1;
sw_alloc_delay = 1;

input_speedup     = 2;
output_speedup    = 1;
internal_speedup  = 1.0;


// Traffic
traffic = uniform;
packet_size = 20;


// Simulation
sim_type = latency;

injection_rate = .012;


END Configuration File: ../../IL2236_project/verify/figure1/dor/mesh88_lat
Class 0:
Packet latency average = 72.8467
	minimum = 25
	maximum = 191
Network latency average = 68.9441
	minimum = 25
	maximum = 191
Slowest packet = 309
Flit latency average = 37.5748
	minimum = 6
	maximum = 172
Slowest flit = 6199
Fragmentation average = 22.6103
	minimum = 0
	maximum = 122
Injected packet rate average = 0.0116562
	minimum = 0.004 (at node 8)
	maximum = 0.02 (at node 20)
Accepted packet rate average = 0.0109062
	minimum = 0.005 (at node 11)
	maximum = 0.019 (at node 12)
Injected flit rate average = 0.230922
	minimum = 0.08 (at node 8)
	maximum = 0.4 (at node 20)
Accepted flit rate average= 0.223484
	minimum = 0.1 (at node 54)
	maximum = 0.385 (at node 12)
Injected packet length average = 19.811
Accepted packet length average = 20.4914
Total in-flight flits = 617 (0 measured)
latency change    = 1
throughput change = 1
Class 0:
Packet latency average = 76.897
	minimum = 25
	maximum = 270
Network latency average = 72.6321
	minimum = 25
	maximum = 270
Slowest packet = 1160
Flit latency average = 39.5693
	minimum = 6
	maximum = 251
Slowest flit = 23217
Fragmentation average = 25.7656
	minimum = 0
	maximum = 190
Injected packet rate average = 0.0118125
	minimum = 0.0065 (at node 8)
	maximum = 0.017 (at node 62)
Accepted packet rate average = 0.0112969
	minimum = 0.008 (at node 29)
	maximum = 0.018 (at node 27)
Injected flit rate average = 0.234758
	minimum = 0.13 (at node 8)
	maximum = 0.34 (at node 62)
Accepted flit rate average= 0.229367
	minimum = 0.16 (at node 29)
	maximum = 0.36 (at node 27)
Injected packet length average = 19.8737
Accepted packet length average = 20.3036
Total in-flight flits = 881 (0 measured)
latency change    = 0.0526712
throughput change = 0.025648
Class 0:
Packet latency average = 77.6326
	minimum = 25
	maximum = 233
Network latency average = 72.6326
	minimum = 25
	maximum = 207
Slowest packet = 1393
Flit latency average = 39.0067
	minimum = 6
	maximum = 188
Slowest flit = 31499
Fragmentation average = 26.5543
	minimum = 0
	maximum = 149
Injected packet rate average = 0.01225
	minimum = 0.006 (at node 48)
	maximum = 0.02 (at node 19)
Accepted packet rate average = 0.012375
	minimum = 0.005 (at node 52)
	maximum = 0.023 (at node 40)
Injected flit rate average = 0.244797
	minimum = 0.117 (at node 55)
	maximum = 0.391 (at node 19)
Accepted flit rate average= 0.245422
	minimum = 0.1 (at node 52)
	maximum = 0.418 (at node 47)
Injected packet length average = 19.9834
Accepted packet length average = 19.8321
Total in-flight flits = 854 (0 measured)
latency change    = 0.00947564
throughput change = 0.0654167
Warmed up ...Time used is 3000 cycles
Class 0:
Packet latency average = 78.7904
	minimum = 25
	maximum = 237
Network latency average = 74.0042
	minimum = 25
	maximum = 219
Slowest packet = 2336
Flit latency average = 40.7197
	minimum = 6
	maximum = 198
Slowest flit = 54059
Fragmentation average = 27.2447
	minimum = 0
	maximum = 166
Injected packet rate average = 0.0119688
	minimum = 0.003 (at node 9)
	maximum = 0.02 (at node 23)
Accepted packet rate average = 0.0120156
	minimum = 0.007 (at node 9)
	maximum = 0.021 (at node 22)
Injected flit rate average = 0.239969
	minimum = 0.043 (at node 9)
	maximum = 0.4 (at node 23)
Accepted flit rate average= 0.241047
	minimum = 0.126 (at node 36)
	maximum = 0.428 (at node 22)
Injected packet length average = 20.0496
Accepted packet length average = 20.0611
Total in-flight flits = 747 (747 measured)
latency change    = 0.0146954
throughput change = 0.01815
Class 0:
Packet latency average = 76.3269
	minimum = 25
	maximum = 237
Network latency average = 71.7349
	minimum = 25
	maximum = 219
Slowest packet = 2336
Flit latency average = 39.1745
	minimum = 6
	maximum = 198
Slowest flit = 54059
Fragmentation average = 25.5199
	minimum = 0
	maximum = 166
Injected packet rate average = 0.0117422
	minimum = 0.006 (at node 9)
	maximum = 0.018 (at node 23)
Accepted packet rate average = 0.0118281
	minimum = 0.0075 (at node 10)
	maximum = 0.0195 (at node 22)
Injected flit rate average = 0.235242
	minimum = 0.1115 (at node 9)
	maximum = 0.36 (at node 23)
Accepted flit rate average= 0.23657
	minimum = 0.139 (at node 23)
	maximum = 0.39 (at node 22)
Injected packet length average = 20.0339
Accepted packet length average = 20.0007
Total in-flight flits = 633 (633 measured)
latency change    = 0.0322758
throughput change = 0.0189228
Class 0:
Packet latency average = 76.4393
	minimum = 25
	maximum = 237
Network latency average = 72.2226
	minimum = 25
	maximum = 219
Slowest packet = 2336
Flit latency average = 39.4328
	minimum = 6
	maximum = 198
Slowest flit = 54059
Fragmentation average = 25.714
	minimum = 0
	maximum = 166
Injected packet rate average = 0.0116458
	minimum = 0.008 (at node 14)
	maximum = 0.015 (at node 17)
Accepted packet rate average = 0.0117188
	minimum = 0.007 (at node 30)
	maximum = 0.0173333 (at node 22)
Injected flit rate average = 0.232781
	minimum = 0.158667 (at node 18)
	maximum = 0.3 (at node 17)
Accepted flit rate average= 0.233604
	minimum = 0.14 (at node 30)
	maximum = 0.346667 (at node 22)
Injected packet length average = 19.9884
Accepted packet length average = 19.9342
Total in-flight flits = 722 (722 measured)
latency change    = 0.00147047
throughput change = 0.0126973
Draining all recorded packets ...
Draining remaining packets ...
Time taken is 6248 cycles
====== Overall Traffic Statistics ======
====== Traffic class 0 ======
Packet latency average = 76.4308 (1 samples)
	minimum = 25 (1 samples)
	maximum = 237 (1 samples)
Network latency average = 72.1504 (1 samples)
	minimum = 25 (1 samples)
	maximum = 219 (1 samples)
Flit latency average = 39.3672 (1 samples)
	minimum = 6 (1 samples)
	maximum = 198 (1 samples)
Fragmentation average = 25.6344 (1 samples)
	minimum = 0 (1 samples)
	maximum = 166 (1 samples)
Injected packet rate average = 0.0116458 (1 samples)
	minimum = 0.008 (1 samples)
	maximum = 0.015 (1 samples)
Accepted packet rate average = 0.0117188 (1 samples)
	minimum = 0.007 (1 samples)
	maximum = 0.0173333 (1 samples)
Injected flit rate average = 0.232781 (1 samples)
	minimum = 0.158667 (1 samples)
	maximum = 0.3 (1 samples)
Accepted flit rate average = 0.233604 (1 samples)
	minimum = 0.14 (1 samples)
	maximum = 0.346667 (1 samples)
Injected packet size average = 19.9884 (1 samples)
Accepted packet size average = 19.9342 (1 samples)
Hops average = 6.22098 (1 samples)
Total run time 3.19965
