BEGIN Configuration File: ../../IL2236_project/verify/figure1/dor/mesh88_lat
// $Id$

// Copyright (c) 2007-2015, Trustees of The Leland Stanford Junior University
// All rights reserved.
//
// Redistribution and use in source and binary forms, with or without
// modification, are permitted provided that the following conditions are met:
//
// Redistributions of source code must retain the above copyright notice, this
// list of conditions and the following disclaimer.
// Redistributions in binary form must reproduce the above copyright notice,
// this list of conditions and the following disclaimer in the documentation
// and/or other materials provided with the distribution.
//
// THIS SOFTWARE IS PROVIDED BY THE COPYRIGHT HOLDERS AND CONTRIBUTORS "AS IS"
// AND ANY EXPRESS OR IMPLIED WARRANTIES, INCLUDING, BUT NOT LIMITED TO, THE
// IMPLIED WARRANTIES OF MERCHANTABILITY AND FITNESS FOR A PARTICULAR PURPOSE
// ARE DISCLAIMED. IN NO EVENT SHALL THE COPYRIGHT OWNER OR CONTRIBUTORS BE
// LIABLE FOR ANY DIRECT, INDIRECT, INCIDENTAL, SPECIAL, EXEMPLARY, OR
// CONSEQUENTIAL DAMAGES (INCLUDING, BUT NOT LIMITED TO, PROCUREMENT OF
// SUBSTITUTE GOODS OR SERVICES; LOSS OF USE, DATA, OR PROFITS; OR BUSINESS
// INTERRUPTION) HOWEVER CAUSED AND ON ANY THEORY OF LIABILITY, WHETHER IN
// CONTRACT, STRICT LIABILITY, OR TORT (INCLUDING NEGLIGENCE OR OTHERWISE)
// ARISING IN ANY WAY OUT OF THE USE OF THIS SOFTWARE, EVEN IF ADVISED OF THE
// POSSIBILITY OF SUCH DAMAGE.

//8X8 mesh with 20 flits per packet under injection mode
//injection rate here is packet per cycle, NOT flit per cycle

// Topology

topology = mesh;
k = 8;
n = 2;

// Routing
routing_function = dor;

// Flow control
num_vcs     = 8;
vc_buf_size = 8;
wait_for_tail_credit = 1;

// Router architecture
vc_allocator = islip;
sw_allocator = islip;
alloc_iters  = 1;

credit_delay   = 2;
routing_delay  = 0;
vc_alloc_delay = 1;
sw_alloc_delay = 1;

input_speedup     = 2;
output_speedup    = 1;
internal_speedup  = 1.0;


// Traffic
traffic = uniform;
packet_size = 20;


// Simulation
sim_type = latency;

injection_rate = .014;


END Configuration File: ../../IL2236_project/verify/figure1/dor/mesh88_lat
Class 0:
Packet latency average = 82.9153
	minimum = 25
	maximum = 259
Network latency average = 76.2385
	minimum = 25
	maximum = 198
Slowest packet = 369
Flit latency average = 41.035
	minimum = 6
	maximum = 182
Slowest flit = 14118
Fragmentation average = 29.7179
	minimum = 0
	maximum = 146
Injected packet rate average = 0.0139844
	minimum = 0.008 (at node 15)
	maximum = 0.022 (at node 37)
Accepted packet rate average = 0.0129062
	minimum = 0.006 (at node 54)
	maximum = 0.022 (at node 12)
Injected flit rate average = 0.276531
	minimum = 0.148 (at node 29)
	maximum = 0.44 (at node 37)
Accepted flit rate average= 0.264562
	minimum = 0.123 (at node 54)
	maximum = 0.44 (at node 12)
Injected packet length average = 19.7743
Accepted packet length average = 20.4988
Total in-flight flits = 968 (0 measured)
latency change    = 1
throughput change = 1
Class 0:
Packet latency average = 93.7601
	minimum = 25
	maximum = 300
Network latency average = 84.5939
	minimum = 25
	maximum = 266
Slowest packet = 369
Flit latency average = 45.4038
	minimum = 6
	maximum = 245
Slowest flit = 27839
Fragmentation average = 37
	minimum = 0
	maximum = 193
Injected packet rate average = 0.0140156
	minimum = 0.008 (at node 15)
	maximum = 0.021 (at node 37)
Accepted packet rate average = 0.0133516
	minimum = 0.0085 (at node 29)
	maximum = 0.019 (at node 27)
Injected flit rate average = 0.278727
	minimum = 0.16 (at node 15)
	maximum = 0.42 (at node 37)
Accepted flit rate average= 0.271516
	minimum = 0.17 (at node 29)
	maximum = 0.3815 (at node 27)
Injected packet length average = 19.8868
Accepted packet length average = 20.3359
Total in-flight flits = 1126 (0 measured)
latency change    = 0.115666
throughput change = 0.0256086
Class 0:
Packet latency average = 94.7762
	minimum = 25
	maximum = 273
Network latency average = 86.8258
	minimum = 25
	maximum = 226
Slowest packet = 1716
Flit latency average = 46.2062
	minimum = 6
	maximum = 202
Slowest flit = 46279
Fragmentation average = 39.4697
	minimum = 0
	maximum = 181
Injected packet rate average = 0.0142031
	minimum = 0.007 (at node 7)
	maximum = 0.023 (at node 9)
Accepted packet rate average = 0.0141719
	minimum = 0.007 (at node 52)
	maximum = 0.023 (at node 47)
Injected flit rate average = 0.284
	minimum = 0.14 (at node 7)
	maximum = 0.463 (at node 9)
Accepted flit rate average= 0.2825
	minimum = 0.123 (at node 52)
	maximum = 0.442 (at node 47)
Injected packet length average = 19.9956
Accepted packet length average = 19.9338
Total in-flight flits = 1226 (0 measured)
latency change    = 0.010721
throughput change = 0.0388827
Warmed up ...Time used is 3000 cycles
Class 0:
Packet latency average = 85.2648
	minimum = 25
	maximum = 255
Network latency average = 78.3374
	minimum = 25
	maximum = 229
Slowest packet = 2708
Flit latency average = 43.4405
	minimum = 6
	maximum = 197
Slowest flit = 59699
Fragmentation average = 31.7081
	minimum = 0
	maximum = 152
Injected packet rate average = 0.0137656
	minimum = 0.006 (at node 50)
	maximum = 0.025 (at node 21)
Accepted packet rate average = 0.0140469
	minimum = 0.005 (at node 36)
	maximum = 0.028 (at node 22)
Injected flit rate average = 0.276187
	minimum = 0.12 (at node 50)
	maximum = 0.506 (at node 21)
Accepted flit rate average= 0.281313
	minimum = 0.115 (at node 36)
	maximum = 0.534 (at node 22)
Injected packet length average = 20.0636
Accepted packet length average = 20.0267
Total in-flight flits = 842 (842 measured)
latency change    = 0.111551
throughput change = 0.00422128
Class 0:
Packet latency average = 83.6181
	minimum = 25
	maximum = 255
Network latency average = 77.0261
	minimum = 25
	maximum = 229
Slowest packet = 2708
Flit latency average = 42.0434
	minimum = 6
	maximum = 197
Slowest flit = 59699
Fragmentation average = 30.614
	minimum = 0
	maximum = 152
Injected packet rate average = 0.0136875
	minimum = 0.006 (at node 50)
	maximum = 0.0195 (at node 39)
Accepted packet rate average = 0.013875
	minimum = 0.0085 (at node 30)
	maximum = 0.021 (at node 22)
Injected flit rate average = 0.273969
	minimum = 0.12 (at node 50)
	maximum = 0.3855 (at node 39)
Accepted flit rate average= 0.276805
	minimum = 0.176 (at node 30)
	maximum = 0.407 (at node 22)
Injected packet length average = 20.016
Accepted packet length average = 19.9499
Total in-flight flits = 835 (835 measured)
latency change    = 0.0196926
throughput change = 0.0162852
Class 0:
Packet latency average = 85.1746
	minimum = 25
	maximum = 270
Network latency average = 78.814
	minimum = 25
	maximum = 270
Slowest packet = 4571
Flit latency average = 42.9771
	minimum = 6
	maximum = 251
Slowest flit = 91439
Fragmentation average = 31.9583
	minimum = 0
	maximum = 158
Injected packet rate average = 0.0136094
	minimum = 0.00933333 (at node 8)
	maximum = 0.018 (at node 12)
Accepted packet rate average = 0.0136979
	minimum = 0.0103333 (at node 10)
	maximum = 0.0186667 (at node 14)
Injected flit rate average = 0.272094
	minimum = 0.186667 (at node 8)
	maximum = 0.36 (at node 12)
Accepted flit rate average= 0.273667
	minimum = 0.205667 (at node 30)
	maximum = 0.378333 (at node 51)
Injected packet length average = 19.9931
Accepted packet length average = 19.9787
Total in-flight flits = 942 (942 measured)
latency change    = 0.018274
throughput change = 0.0114666
Class 0:
Packet latency average = 86.7032
	minimum = 25
	maximum = 279
Network latency average = 80.5517
	minimum = 25
	maximum = 270
Slowest packet = 4571
Flit latency average = 43.8019
	minimum = 6
	maximum = 251
Slowest flit = 91439
Fragmentation average = 33.4048
	minimum = 0
	maximum = 193
Injected packet rate average = 0.0136797
	minimum = 0.0105 (at node 17)
	maximum = 0.01925 (at node 24)
Accepted packet rate average = 0.0137227
	minimum = 0.01075 (at node 10)
	maximum = 0.01775 (at node 14)
Injected flit rate average = 0.273363
	minimum = 0.21325 (at node 17)
	maximum = 0.38125 (at node 24)
Accepted flit rate average= 0.27434
	minimum = 0.20925 (at node 54)
	maximum = 0.3555 (at node 49)
Injected packet length average = 19.9832
Accepted packet length average = 19.9917
Total in-flight flits = 1035 (1035 measured)
latency change    = 0.0176298
throughput change = 0.00245381
Draining all recorded packets ...
Draining remaining packets ...
Time taken is 7294 cycles
====== Overall Traffic Statistics ======
====== Traffic class 0 ======
Packet latency average = 87.0083 (1 samples)
	minimum = 25 (1 samples)
	maximum = 279 (1 samples)
Network latency average = 80.7507 (1 samples)
	minimum = 25 (1 samples)
	maximum = 270 (1 samples)
Flit latency average = 43.919 (1 samples)
	minimum = 6 (1 samples)
	maximum = 251 (1 samples)
Fragmentation average = 33.5444 (1 samples)
	minimum = 0 (1 samples)
	maximum = 193 (1 samples)
Injected packet rate average = 0.0136797 (1 samples)
	minimum = 0.0105 (1 samples)
	maximum = 0.01925 (1 samples)
Accepted packet rate average = 0.0137227 (1 samples)
	minimum = 0.01075 (1 samples)
	maximum = 0.01775 (1 samples)
Injected flit rate average = 0.273363 (1 samples)
	minimum = 0.21325 (1 samples)
	maximum = 0.38125 (1 samples)
Accepted flit rate average = 0.27434 (1 samples)
	minimum = 0.20925 (1 samples)
	maximum = 0.3555 (1 samples)
Injected packet size average = 19.9832 (1 samples)
Accepted packet size average = 19.9917 (1 samples)
Hops average = 6.26838 (1 samples)
Total run time 4.36385
