BEGIN Configuration File: ../../IL2236_project/verify/figure1/dor/mesh88_lat
// $Id$

// Copyright (c) 2007-2015, Trustees of The Leland Stanford Junior University
// All rights reserved.
//
// Redistribution and use in source and binary forms, with or without
// modification, are permitted provided that the following conditions are met:
//
// Redistributions of source code must retain the above copyright notice, this
// list of conditions and the following disclaimer.
// Redistributions in binary form must reproduce the above copyright notice,
// this list of conditions and the following disclaimer in the documentation
// and/or other materials provided with the distribution.
//
// THIS SOFTWARE IS PROVIDED BY THE COPYRIGHT HOLDERS AND CONTRIBUTORS "AS IS"
// AND ANY EXPRESS OR IMPLIED WARRANTIES, INCLUDING, BUT NOT LIMITED TO, THE
// IMPLIED WARRANTIES OF MERCHANTABILITY AND FITNESS FOR A PARTICULAR PURPOSE
// ARE DISCLAIMED. IN NO EVENT SHALL THE COPYRIGHT OWNER OR CONTRIBUTORS BE
// LIABLE FOR ANY DIRECT, INDIRECT, INCIDENTAL, SPECIAL, EXEMPLARY, OR
// CONSEQUENTIAL DAMAGES (INCLUDING, BUT NOT LIMITED TO, PROCUREMENT OF
// SUBSTITUTE GOODS OR SERVICES; LOSS OF USE, DATA, OR PROFITS; OR BUSINESS
// INTERRUPTION) HOWEVER CAUSED AND ON ANY THEORY OF LIABILITY, WHETHER IN
// CONTRACT, STRICT LIABILITY, OR TORT (INCLUDING NEGLIGENCE OR OTHERWISE)
// ARISING IN ANY WAY OUT OF THE USE OF THIS SOFTWARE, EVEN IF ADVISED OF THE
// POSSIBILITY OF SUCH DAMAGE.

//8X8 mesh with 20 flits per packet under injection mode
//injection rate here is packet per cycle, NOT flit per cycle

// Topology

topology = mesh;
k = 8;
n = 2;

// Routing
routing_function = dor;

// Flow control
num_vcs     = 8;
vc_buf_size = 8;
wait_for_tail_credit = 1;

// Router architecture
vc_allocator = islip;
sw_allocator = islip;
alloc_iters  = 1;

credit_delay   = 2;
routing_delay  = 0;
vc_alloc_delay = 1;
sw_alloc_delay = 1;

input_speedup     = 2;
output_speedup    = 1;
internal_speedup  = 1.0;


// Traffic
traffic = uniform;
packet_size = 20;


// Simulation
sim_type = latency;

injection_rate = .025;


END Configuration File: ../../IL2236_project/verify/figure1/dor/mesh88_lat
Class 0:
Packet latency average = 176.485
	minimum = 28
	maximum = 528
Network latency average = 135.644
	minimum = 25
	maximum = 422
Slowest packet = 240
Flit latency average = 74.971
	minimum = 6
	maximum = 402
Slowest flit = 4819
Fragmentation average = 78.005
	minimum = 0
	maximum = 230
Injected packet rate average = 0.022375
	minimum = 0.012 (at node 23)
	maximum = 0.032 (at node 57)
Accepted packet rate average = 0.0186719
	minimum = 0.01 (at node 54)
	maximum = 0.027 (at node 27)
Injected flit rate average = 0.441156
	minimum = 0.228 (at node 23)
	maximum = 0.637 (at node 57)
Accepted flit rate average= 0.396453
	minimum = 0.249 (at node 54)
	maximum = 0.574 (at node 27)
Injected packet length average = 19.7165
Accepted packet length average = 21.2326
Total in-flight flits = 3267 (0 measured)
latency change    = 1
throughput change = 1
Class 0:
Packet latency average = 247.102
	minimum = 28
	maximum = 1038
Network latency average = 160.485
	minimum = 25
	maximum = 870
Slowest packet = 240
Flit latency average = 94.1042
	minimum = 6
	maximum = 840
Slowest flit = 28415
Fragmentation average = 86.8303
	minimum = 0
	maximum = 314
Injected packet rate average = 0.022125
	minimum = 0.0135 (at node 61)
	maximum = 0.03 (at node 48)
Accepted packet rate average = 0.0201641
	minimum = 0.0155 (at node 62)
	maximum = 0.0265 (at node 12)
Injected flit rate average = 0.439781
	minimum = 0.268 (at node 61)
	maximum = 0.5965 (at node 48)
Accepted flit rate average= 0.415734
	minimum = 0.3265 (at node 62)
	maximum = 0.544 (at node 12)
Injected packet length average = 19.8771
Accepted packet length average = 20.6176
Total in-flight flits = 3426 (0 measured)
latency change    = 0.285784
throughput change = 0.0463788
Class 0:
Packet latency average = 456.294
	minimum = 30
	maximum = 1449
Network latency average = 190.167
	minimum = 25
	maximum = 1337
Slowest packet = 2509
Flit latency average = 120.293
	minimum = 6
	maximum = 1300
Slowest flit = 45476
Fragmentation average = 89.0547
	minimum = 0
	maximum = 307
Injected packet rate average = 0.0217344
	minimum = 0.003 (at node 11)
	maximum = 0.033 (at node 57)
Accepted packet rate average = 0.0214375
	minimum = 0.013 (at node 5)
	maximum = 0.034 (at node 22)
Injected flit rate average = 0.433859
	minimum = 0.052 (at node 11)
	maximum = 0.657 (at node 57)
Accepted flit rate average= 0.427406
	minimum = 0.279 (at node 32)
	maximum = 0.656 (at node 22)
Injected packet length average = 19.9619
Accepted packet length average = 19.9373
Total in-flight flits = 3892 (0 measured)
latency change    = 0.458459
throughput change = 0.0273086
Warmed up ...Time used is 3000 cycles
Class 0:
Packet latency average = 575.696
	minimum = 29
	maximum = 2060
Network latency average = 163.234
	minimum = 25
	maximum = 699
Slowest packet = 4266
Flit latency average = 121.323
	minimum = 6
	maximum = 1145
Slowest flit = 53707
Fragmentation average = 78.7641
	minimum = 0
	maximum = 256
Injected packet rate average = 0.0223125
	minimum = 0.015 (at node 10)
	maximum = 0.037 (at node 0)
Accepted packet rate average = 0.0221719
	minimum = 0.014 (at node 57)
	maximum = 0.035 (at node 49)
Injected flit rate average = 0.4455
	minimum = 0.299 (at node 10)
	maximum = 0.723 (at node 0)
Accepted flit rate average= 0.441688
	minimum = 0.271 (at node 57)
	maximum = 0.657 (at node 49)
Injected packet length average = 19.9664
Accepted packet length average = 19.9211
Total in-flight flits = 4184 (4184 measured)
latency change    = 0.207404
throughput change = 0.0323334
Average latency for class 0 exceeded 500 cycles. Aborting simulation.
Too many sample periods needed to converge
Simulation unstable, ending ...
Total run time 4.06725
