BEGIN Configuration File: ../../IL2236_project/verify/figure1/dor/mesh88_lat
// $Id$

// Copyright (c) 2007-2015, Trustees of The Leland Stanford Junior University
// All rights reserved.
//
// Redistribution and use in source and binary forms, with or without
// modification, are permitted provided that the following conditions are met:
//
// Redistributions of source code must retain the above copyright notice, this
// list of conditions and the following disclaimer.
// Redistributions in binary form must reproduce the above copyright notice,
// this list of conditions and the following disclaimer in the documentation
// and/or other materials provided with the distribution.
//
// THIS SOFTWARE IS PROVIDED BY THE COPYRIGHT HOLDERS AND CONTRIBUTORS "AS IS"
// AND ANY EXPRESS OR IMPLIED WARRANTIES, INCLUDING, BUT NOT LIMITED TO, THE
// IMPLIED WARRANTIES OF MERCHANTABILITY AND FITNESS FOR A PARTICULAR PURPOSE
// ARE DISCLAIMED. IN NO EVENT SHALL THE COPYRIGHT OWNER OR CONTRIBUTORS BE
// LIABLE FOR ANY DIRECT, INDIRECT, INCIDENTAL, SPECIAL, EXEMPLARY, OR
// CONSEQUENTIAL DAMAGES (INCLUDING, BUT NOT LIMITED TO, PROCUREMENT OF
// SUBSTITUTE GOODS OR SERVICES; LOSS OF USE, DATA, OR PROFITS; OR BUSINESS
// INTERRUPTION) HOWEVER CAUSED AND ON ANY THEORY OF LIABILITY, WHETHER IN
// CONTRACT, STRICT LIABILITY, OR TORT (INCLUDING NEGLIGENCE OR OTHERWISE)
// ARISING IN ANY WAY OUT OF THE USE OF THIS SOFTWARE, EVEN IF ADVISED OF THE
// POSSIBILITY OF SUCH DAMAGE.

//8X8 mesh with 20 flits per packet under injection mode
//injection rate here is packet per cycle, NOT flit per cycle

// Topology

topology = mesh;
k = 8;
n = 2;

// Routing
routing_function = dor;

// Flow control
num_vcs     = 8;
vc_buf_size = 8;
wait_for_tail_credit = 1;

// Router architecture
vc_allocator = islip;
sw_allocator = islip;
alloc_iters  = 1;

credit_delay   = 2;
routing_delay  = 0;
vc_alloc_delay = 1;
sw_alloc_delay = 1;

input_speedup     = 2;
output_speedup    = 1;
internal_speedup  = 1.0;


// Traffic
traffic = uniform;
packet_size = 20;


// Simulation
sim_type = latency;

injection_rate = .027;


END Configuration File: ../../IL2236_project/verify/figure1/dor/mesh88_lat
Class 0:
Packet latency average = 200.766
	minimum = 25
	maximum = 666
Network latency average = 142.777
	minimum = 25
	maximum = 556
Slowest packet = 30
Flit latency average = 81.3446
	minimum = 6
	maximum = 532
Slowest flit = 11899
Fragmentation average = 80.0581
	minimum = 0
	maximum = 260
Injected packet rate average = 0.022625
	minimum = 0.014 (at node 45)
	maximum = 0.037 (at node 55)
Accepted packet rate average = 0.0185625
	minimum = 0.01 (at node 29)
	maximum = 0.029 (at node 60)
Injected flit rate average = 0.445063
	minimum = 0.276 (at node 45)
	maximum = 0.73 (at node 55)
Accepted flit rate average= 0.397297
	minimum = 0.251 (at node 43)
	maximum = 0.58 (at node 60)
Injected packet length average = 19.6713
Accepted packet length average = 21.4032
Total in-flight flits = 3533 (0 measured)
latency change    = 1
throughput change = 1
Class 0:
Packet latency average = 300.353
	minimum = 25
	maximum = 1099
Network latency average = 165.631
	minimum = 25
	maximum = 1020
Slowest packet = 1233
Flit latency average = 99.1985
	minimum = 6
	maximum = 971
Slowest flit = 24679
Fragmentation average = 87.0456
	minimum = 0
	maximum = 318
Injected packet rate average = 0.0226406
	minimum = 0.0165 (at node 43)
	maximum = 0.0335 (at node 0)
Accepted packet rate average = 0.020375
	minimum = 0.0165 (at node 30)
	maximum = 0.027 (at node 12)
Injected flit rate average = 0.448977
	minimum = 0.324 (at node 58)
	maximum = 0.6675 (at node 0)
Accepted flit rate average= 0.418672
	minimum = 0.333 (at node 62)
	maximum = 0.549 (at node 12)
Injected packet length average = 19.8306
Accepted packet length average = 20.5483
Total in-flight flits = 4370 (0 measured)
latency change    = 0.331567
throughput change = 0.0510543
Class 0:
Packet latency average = 583.002
	minimum = 53
	maximum = 1750
Network latency average = 215.747
	minimum = 25
	maximum = 1343
Slowest packet = 2713
Flit latency average = 144.541
	minimum = 6
	maximum = 1304
Slowest flit = 43075
Fragmentation average = 89.0508
	minimum = 0
	maximum = 295
Injected packet rate average = 0.0206406
	minimum = 0.008 (at node 10)
	maximum = 0.033 (at node 24)
Accepted packet rate average = 0.0202813
	minimum = 0.013 (at node 23)
	maximum = 0.03 (at node 22)
Injected flit rate average = 0.413234
	minimum = 0.158 (at node 23)
	maximum = 0.649 (at node 24)
Accepted flit rate average= 0.406859
	minimum = 0.265 (at node 30)
	maximum = 0.616 (at node 22)
Injected packet length average = 20.0204
Accepted packet length average = 20.0609
Total in-flight flits = 4751 (0 measured)
latency change    = 0.484817
throughput change = 0.0290334
Average latency for class 0 exceeded 500 cycles. Aborting simulation.
Too many sample periods needed to converge
Simulation unstable, ending ...
Total run time 3.07383
