BEGIN Configuration File: ../../IL2236_project/verify/figure1/dor/mesh88_lat
// $Id$

// Copyright (c) 2007-2015, Trustees of The Leland Stanford Junior University
// All rights reserved.
//
// Redistribution and use in source and binary forms, with or without
// modification, are permitted provided that the following conditions are met:
//
// Redistributions of source code must retain the above copyright notice, this
// list of conditions and the following disclaimer.
// Redistributions in binary form must reproduce the above copyright notice,
// this list of conditions and the following disclaimer in the documentation
// and/or other materials provided with the distribution.
//
// THIS SOFTWARE IS PROVIDED BY THE COPYRIGHT HOLDERS AND CONTRIBUTORS "AS IS"
// AND ANY EXPRESS OR IMPLIED WARRANTIES, INCLUDING, BUT NOT LIMITED TO, THE
// IMPLIED WARRANTIES OF MERCHANTABILITY AND FITNESS FOR A PARTICULAR PURPOSE
// ARE DISCLAIMED. IN NO EVENT SHALL THE COPYRIGHT OWNER OR CONTRIBUTORS BE
// LIABLE FOR ANY DIRECT, INDIRECT, INCIDENTAL, SPECIAL, EXEMPLARY, OR
// CONSEQUENTIAL DAMAGES (INCLUDING, BUT NOT LIMITED TO, PROCUREMENT OF
// SUBSTITUTE GOODS OR SERVICES; LOSS OF USE, DATA, OR PROFITS; OR BUSINESS
// INTERRUPTION) HOWEVER CAUSED AND ON ANY THEORY OF LIABILITY, WHETHER IN
// CONTRACT, STRICT LIABILITY, OR TORT (INCLUDING NEGLIGENCE OR OTHERWISE)
// ARISING IN ANY WAY OUT OF THE USE OF THIS SOFTWARE, EVEN IF ADVISED OF THE
// POSSIBILITY OF SUCH DAMAGE.

//8X8 mesh with 20 flits per packet under injection mode
//injection rate here is packet per cycle, NOT flit per cycle

// Topology

topology = mesh;
k = 8;
n = 2;

// Routing
routing_function = dor;

// Flow control
num_vcs     = 8;
vc_buf_size = 8;
wait_for_tail_credit = 1;

// Router architecture
vc_allocator = islip;
sw_allocator = islip;
alloc_iters  = 1;

credit_delay   = 2;
routing_delay  = 0;
vc_alloc_delay = 1;
sw_alloc_delay = 1;

input_speedup     = 2;
output_speedup    = 1;
internal_speedup  = 1.0;


// Traffic
traffic = uniform;
packet_size = 20;


// Simulation
sim_type = latency;

injection_rate = .028;


END Configuration File: ../../IL2236_project/verify/figure1/dor/mesh88_lat
Class 0:
Packet latency average = 201.972
	minimum = 27
	maximum = 594
Network latency average = 146.173
	minimum = 27
	maximum = 546
Slowest packet = 354
Flit latency average = 83.5912
	minimum = 6
	maximum = 512
Slowest flit = 13807
Fragmentation average = 80.7513
	minimum = 0
	maximum = 317
Injected packet rate average = 0.0225
	minimum = 0.014 (at node 2)
	maximum = 0.034 (at node 0)
Accepted packet rate average = 0.0182812
	minimum = 0.011 (at node 22)
	maximum = 0.026 (at node 12)
Injected flit rate average = 0.442344
	minimum = 0.276 (at node 2)
	maximum = 0.662 (at node 0)
Accepted flit rate average= 0.389406
	minimum = 0.25 (at node 54)
	maximum = 0.561 (at node 27)
Injected packet length average = 19.6597
Accepted packet length average = 21.3009
Total in-flight flits = 3878 (0 measured)
latency change    = 1
throughput change = 1
Class 0:
Packet latency average = 325.104
	minimum = 27
	maximum = 1113
Network latency average = 172.081
	minimum = 25
	maximum = 657
Slowest packet = 354
Flit latency average = 103.849
	minimum = 6
	maximum = 619
Slowest flit = 26019
Fragmentation average = 88.6835
	minimum = 0
	maximum = 336
Injected packet rate average = 0.0224375
	minimum = 0.0165 (at node 37)
	maximum = 0.0315 (at node 31)
Accepted packet rate average = 0.0201172
	minimum = 0.015 (at node 62)
	maximum = 0.026 (at node 39)
Injected flit rate average = 0.445023
	minimum = 0.328 (at node 37)
	maximum = 0.626 (at node 31)
Accepted flit rate average= 0.414336
	minimum = 0.32 (at node 46)
	maximum = 0.5465 (at node 12)
Injected packet length average = 19.8339
Accepted packet length average = 20.5961
Total in-flight flits = 4405 (0 measured)
latency change    = 0.378747
throughput change = 0.0601678
Class 0:
Packet latency average = 621.185
	minimum = 32
	maximum = 1638
Network latency average = 209.437
	minimum = 25
	maximum = 1132
Slowest packet = 2654
Flit latency average = 140.202
	minimum = 6
	maximum = 1111
Slowest flit = 50479
Fragmentation average = 89.1076
	minimum = 0
	maximum = 249
Injected packet rate average = 0.0208281
	minimum = 0.005 (at node 19)
	maximum = 0.038 (at node 56)
Accepted packet rate average = 0.0212031
	minimum = 0.011 (at node 23)
	maximum = 0.033 (at node 22)
Injected flit rate average = 0.416828
	minimum = 0.104 (at node 19)
	maximum = 0.766 (at node 56)
Accepted flit rate average= 0.421297
	minimum = 0.216 (at node 23)
	maximum = 0.689 (at node 22)
Injected packet length average = 20.0128
Accepted packet length average = 19.8696
Total in-flight flits = 4102 (0 measured)
latency change    = 0.476639
throughput change = 0.0165226
Average latency for class 0 exceeded 500 cycles. Aborting simulation.
Too many sample periods needed to converge
Simulation unstable, ending ...
Total run time 3.12337
