BEGIN Configuration File: ../../IL2236_project/verify/figure1/dor/mesh88_lat
// $Id$

// Copyright (c) 2007-2015, Trustees of The Leland Stanford Junior University
// All rights reserved.
//
// Redistribution and use in source and binary forms, with or without
// modification, are permitted provided that the following conditions are met:
//
// Redistributions of source code must retain the above copyright notice, this
// list of conditions and the following disclaimer.
// Redistributions in binary form must reproduce the above copyright notice,
// this list of conditions and the following disclaimer in the documentation
// and/or other materials provided with the distribution.
//
// THIS SOFTWARE IS PROVIDED BY THE COPYRIGHT HOLDERS AND CONTRIBUTORS "AS IS"
// AND ANY EXPRESS OR IMPLIED WARRANTIES, INCLUDING, BUT NOT LIMITED TO, THE
// IMPLIED WARRANTIES OF MERCHANTABILITY AND FITNESS FOR A PARTICULAR PURPOSE
// ARE DISCLAIMED. IN NO EVENT SHALL THE COPYRIGHT OWNER OR CONTRIBUTORS BE
// LIABLE FOR ANY DIRECT, INDIRECT, INCIDENTAL, SPECIAL, EXEMPLARY, OR
// CONSEQUENTIAL DAMAGES (INCLUDING, BUT NOT LIMITED TO, PROCUREMENT OF
// SUBSTITUTE GOODS OR SERVICES; LOSS OF USE, DATA, OR PROFITS; OR BUSINESS
// INTERRUPTION) HOWEVER CAUSED AND ON ANY THEORY OF LIABILITY, WHETHER IN
// CONTRACT, STRICT LIABILITY, OR TORT (INCLUDING NEGLIGENCE OR OTHERWISE)
// ARISING IN ANY WAY OUT OF THE USE OF THIS SOFTWARE, EVEN IF ADVISED OF THE
// POSSIBILITY OF SUCH DAMAGE.

//8X8 mesh with 20 flits per packet under injection mode
//injection rate here is packet per cycle, NOT flit per cycle

// Topology

topology = mesh;
k = 8;
n = 2;

// Routing
routing_function = dor;

// Flow control
num_vcs     = 8;
vc_buf_size = 8;
wait_for_tail_credit = 1;

// Router architecture
vc_allocator = islip;
sw_allocator = islip;
alloc_iters  = 1;

credit_delay   = 2;
routing_delay  = 0;
vc_alloc_delay = 1;
sw_alloc_delay = 1;

input_speedup     = 2;
output_speedup    = 1;
internal_speedup  = 1.0;


// Traffic
traffic = uniform;
packet_size = 20;


// Simulation
sim_type = latency;

injection_rate = .031;


END Configuration File: ../../IL2236_project/verify/figure1/dor/mesh88_lat
Class 0:
Packet latency average = 225.084
	minimum = 25
	maximum = 625
Network latency average = 156.546
	minimum = 25
	maximum = 532
Slowest packet = 318
Flit latency average = 90.0777
	minimum = 6
	maximum = 511
Slowest flit = 6379
Fragmentation average = 87.3147
	minimum = 0
	maximum = 372
Injected packet rate average = 0.0234375
	minimum = 0.015 (at node 41)
	maximum = 0.036 (at node 48)
Accepted packet rate average = 0.0187656
	minimum = 0.01 (at node 43)
	maximum = 0.026 (at node 6)
Injected flit rate average = 0.461297
	minimum = 0.298 (at node 41)
	maximum = 0.714 (at node 48)
Accepted flit rate average= 0.402422
	minimum = 0.276 (at node 43)
	maximum = 0.569 (at node 27)
Injected packet length average = 19.682
Accepted packet length average = 21.4446
Total in-flight flits = 4245 (0 measured)
latency change    = 1
throughput change = 1
Class 0:
Packet latency average = 368.159
	minimum = 25
	maximum = 1296
Network latency average = 181.967
	minimum = 25
	maximum = 867
Slowest packet = 318
Flit latency average = 110.352
	minimum = 6
	maximum = 811
Slowest flit = 21739
Fragmentation average = 93.7973
	minimum = 0
	maximum = 372
Injected packet rate average = 0.0225391
	minimum = 0.015 (at node 53)
	maximum = 0.033 (at node 63)
Accepted packet rate average = 0.0202344
	minimum = 0.016 (at node 62)
	maximum = 0.026 (at node 39)
Injected flit rate average = 0.447305
	minimum = 0.298 (at node 53)
	maximum = 0.6585 (at node 63)
Accepted flit rate average= 0.417984
	minimum = 0.33 (at node 46)
	maximum = 0.5365 (at node 39)
Injected packet length average = 19.8458
Accepted packet length average = 20.6571
Total in-flight flits = 4198 (0 measured)
latency change    = 0.388622
throughput change = 0.0372323
Class 0:
Packet latency average = 762.676
	minimum = 33
	maximum = 1868
Network latency average = 198.747
	minimum = 25
	maximum = 1219
Slowest packet = 2179
Flit latency average = 127.56
	minimum = 6
	maximum = 1192
Slowest flit = 46637
Fragmentation average = 91.6693
	minimum = 0
	maximum = 313
Injected packet rate average = 0.0220156
	minimum = 0.011 (at node 29)
	maximum = 0.037 (at node 8)
Accepted packet rate average = 0.0220156
	minimum = 0.01 (at node 23)
	maximum = 0.035 (at node 22)
Injected flit rate average = 0.439297
	minimum = 0.231 (at node 29)
	maximum = 0.729 (at node 8)
Accepted flit rate average= 0.436172
	minimum = 0.189 (at node 23)
	maximum = 0.656 (at node 22)
Injected packet length average = 19.9539
Accepted packet length average = 19.8119
Total in-flight flits = 4463 (0 measured)
latency change    = 0.51728
throughput change = 0.041698
Average latency for class 0 exceeded 500 cycles. Aborting simulation.
Too many sample periods needed to converge
Simulation unstable, ending ...
Total run time 3.16959
