BEGIN Configuration File: ../../IL2236_project/verify/figure1/dor/mesh88_lat
// $Id$

// Copyright (c) 2007-2015, Trustees of The Leland Stanford Junior University
// All rights reserved.
//
// Redistribution and use in source and binary forms, with or without
// modification, are permitted provided that the following conditions are met:
//
// Redistributions of source code must retain the above copyright notice, this
// list of conditions and the following disclaimer.
// Redistributions in binary form must reproduce the above copyright notice,
// this list of conditions and the following disclaimer in the documentation
// and/or other materials provided with the distribution.
//
// THIS SOFTWARE IS PROVIDED BY THE COPYRIGHT HOLDERS AND CONTRIBUTORS "AS IS"
// AND ANY EXPRESS OR IMPLIED WARRANTIES, INCLUDING, BUT NOT LIMITED TO, THE
// IMPLIED WARRANTIES OF MERCHANTABILITY AND FITNESS FOR A PARTICULAR PURPOSE
// ARE DISCLAIMED. IN NO EVENT SHALL THE COPYRIGHT OWNER OR CONTRIBUTORS BE
// LIABLE FOR ANY DIRECT, INDIRECT, INCIDENTAL, SPECIAL, EXEMPLARY, OR
// CONSEQUENTIAL DAMAGES (INCLUDING, BUT NOT LIMITED TO, PROCUREMENT OF
// SUBSTITUTE GOODS OR SERVICES; LOSS OF USE, DATA, OR PROFITS; OR BUSINESS
// INTERRUPTION) HOWEVER CAUSED AND ON ANY THEORY OF LIABILITY, WHETHER IN
// CONTRACT, STRICT LIABILITY, OR TORT (INCLUDING NEGLIGENCE OR OTHERWISE)
// ARISING IN ANY WAY OUT OF THE USE OF THIS SOFTWARE, EVEN IF ADVISED OF THE
// POSSIBILITY OF SUCH DAMAGE.

//8X8 mesh with 20 flits per packet under injection mode
//injection rate here is packet per cycle, NOT flit per cycle

// Topology

topology = mesh;
k = 8;
n = 2;

// Routing
routing_function = dor;

// Flow control
num_vcs     = 8;
vc_buf_size = 8;
wait_for_tail_credit = 1;

// Router architecture
vc_allocator = islip;
sw_allocator = islip;
alloc_iters  = 1;

credit_delay   = 2;
routing_delay  = 0;
vc_alloc_delay = 1;
sw_alloc_delay = 1;

input_speedup     = 2;
output_speedup    = 1;
internal_speedup  = 1.0;


// Traffic
traffic = uniform;
packet_size = 20;


// Simulation
sim_type = latency;

injection_rate = .032;


END Configuration File: ../../IL2236_project/verify/figure1/dor/mesh88_lat
Class 0:
Packet latency average = 236.997
	minimum = 29
	maximum = 654
Network latency average = 158.093
	minimum = 26
	maximum = 551
Slowest packet = 290
Flit latency average = 92.004
	minimum = 6
	maximum = 510
Slowest flit = 13219
Fragmentation average = 88.0109
	minimum = 0
	maximum = 282
Injected packet rate average = 0.0231562
	minimum = 0.014 (at node 49)
	maximum = 0.035 (at node 55)
Accepted packet rate average = 0.0187031
	minimum = 0.009 (at node 43)
	maximum = 0.028 (at node 27)
Injected flit rate average = 0.455313
	minimum = 0.279 (at node 49)
	maximum = 0.699 (at node 55)
Accepted flit rate average= 0.401328
	minimum = 0.263 (at node 43)
	maximum = 0.594 (at node 27)
Injected packet length average = 19.6626
Accepted packet length average = 21.4578
Total in-flight flits = 3955 (0 measured)
latency change    = 1
throughput change = 1
Class 0:
Packet latency average = 387.424
	minimum = 29
	maximum = 1323
Network latency average = 183.913
	minimum = 25
	maximum = 913
Slowest packet = 290
Flit latency average = 111.382
	minimum = 6
	maximum = 894
Slowest flit = 24819
Fragmentation average = 94.2893
	minimum = 0
	maximum = 284
Injected packet rate average = 0.0224453
	minimum = 0.013 (at node 15)
	maximum = 0.034 (at node 55)
Accepted packet rate average = 0.0201172
	minimum = 0.016 (at node 19)
	maximum = 0.0255 (at node 12)
Injected flit rate average = 0.445258
	minimum = 0.258 (at node 15)
	maximum = 0.674 (at node 55)
Accepted flit rate average= 0.416508
	minimum = 0.335 (at node 52)
	maximum = 0.5325 (at node 12)
Injected packet length average = 19.8375
Accepted packet length average = 20.7041
Total in-flight flits = 4147 (0 measured)
latency change    = 0.388274
throughput change = 0.0364451
Average latency for class 0 exceeded 500 cycles. Aborting simulation.
Too many sample periods needed to converge
Simulation unstable, ending ...
Total run time 2.06691
