BEGIN Configuration File: ../../IL2236_project/verify/figure1/dor/mesh88_lat
// $Id$

// Copyright (c) 2007-2015, Trustees of The Leland Stanford Junior University
// All rights reserved.
//
// Redistribution and use in source and binary forms, with or without
// modification, are permitted provided that the following conditions are met:
//
// Redistributions of source code must retain the above copyright notice, this
// list of conditions and the following disclaimer.
// Redistributions in binary form must reproduce the above copyright notice,
// this list of conditions and the following disclaimer in the documentation
// and/or other materials provided with the distribution.
//
// THIS SOFTWARE IS PROVIDED BY THE COPYRIGHT HOLDERS AND CONTRIBUTORS "AS IS"
// AND ANY EXPRESS OR IMPLIED WARRANTIES, INCLUDING, BUT NOT LIMITED TO, THE
// IMPLIED WARRANTIES OF MERCHANTABILITY AND FITNESS FOR A PARTICULAR PURPOSE
// ARE DISCLAIMED. IN NO EVENT SHALL THE COPYRIGHT OWNER OR CONTRIBUTORS BE
// LIABLE FOR ANY DIRECT, INDIRECT, INCIDENTAL, SPECIAL, EXEMPLARY, OR
// CONSEQUENTIAL DAMAGES (INCLUDING, BUT NOT LIMITED TO, PROCUREMENT OF
// SUBSTITUTE GOODS OR SERVICES; LOSS OF USE, DATA, OR PROFITS; OR BUSINESS
// INTERRUPTION) HOWEVER CAUSED AND ON ANY THEORY OF LIABILITY, WHETHER IN
// CONTRACT, STRICT LIABILITY, OR TORT (INCLUDING NEGLIGENCE OR OTHERWISE)
// ARISING IN ANY WAY OUT OF THE USE OF THIS SOFTWARE, EVEN IF ADVISED OF THE
// POSSIBILITY OF SUCH DAMAGE.

//8X8 mesh with 20 flits per packet under injection mode
//injection rate here is packet per cycle, NOT flit per cycle

// Topology

topology = mesh;
k = 8;
n = 2;

// Routing
routing_function = dor;

// Flow control
num_vcs     = 8;
vc_buf_size = 8;
wait_for_tail_credit = 1;

// Router architecture
vc_allocator = islip;
sw_allocator = islip;
alloc_iters  = 1;

credit_delay   = 2;
routing_delay  = 0;
vc_alloc_delay = 1;
sw_alloc_delay = 1;

input_speedup     = 2;
output_speedup    = 1;
internal_speedup  = 1.0;


// Traffic
traffic = uniform;
packet_size = 20;


// Simulation
sim_type = latency;

injection_rate = .033;


END Configuration File: ../../IL2236_project/verify/figure1/dor/mesh88_lat
Class 0:
Packet latency average = 243.872
	minimum = 29
	maximum = 733
Network latency average = 155.823
	minimum = 25
	maximum = 572
Slowest packet = 107
Flit latency average = 91.2429
	minimum = 6
	maximum = 565
Slowest flit = 12435
Fragmentation average = 85.2143
	minimum = 0
	maximum = 311
Injected packet rate average = 0.0229687
	minimum = 0.014 (at node 29)
	maximum = 0.037 (at node 0)
Accepted packet rate average = 0.018375
	minimum = 0.011 (at node 29)
	maximum = 0.027 (at node 27)
Injected flit rate average = 0.451891
	minimum = 0.268 (at node 29)
	maximum = 0.738 (at node 0)
Accepted flit rate average= 0.395203
	minimum = 0.275 (at node 22)
	maximum = 0.584 (at node 27)
Injected packet length average = 19.6741
Accepted packet length average = 21.5077
Total in-flight flits = 4107 (0 measured)
latency change    = 1
throughput change = 1
Class 0:
Packet latency average = 415.833
	minimum = 29
	maximum = 1343
Network latency average = 181.728
	minimum = 25
	maximum = 923
Slowest packet = 107
Flit latency average = 111.419
	minimum = 6
	maximum = 900
Slowest flit = 27239
Fragmentation average = 91.7935
	minimum = 0
	maximum = 311
Injected packet rate average = 0.0224453
	minimum = 0.0135 (at node 58)
	maximum = 0.0355 (at node 56)
Accepted packet rate average = 0.0200156
	minimum = 0.0155 (at node 29)
	maximum = 0.026 (at node 12)
Injected flit rate average = 0.444625
	minimum = 0.269 (at node 58)
	maximum = 0.7075 (at node 56)
Accepted flit rate average= 0.41368
	minimum = 0.32 (at node 46)
	maximum = 0.533 (at node 12)
Injected packet length average = 19.8093
Accepted packet length average = 20.6678
Total in-flight flits = 4509 (0 measured)
latency change    = 0.413535
throughput change = 0.0446639
Average latency for class 0 exceeded 500 cycles. Aborting simulation.
Too many sample periods needed to converge
Simulation unstable, ending ...
Total run time 2.04932
