BEGIN Configuration File: ../../IL2236_project/verify/figure1/dor/mesh88_lat
// $Id$

// Copyright (c) 2007-2015, Trustees of The Leland Stanford Junior University
// All rights reserved.
//
// Redistribution and use in source and binary forms, with or without
// modification, are permitted provided that the following conditions are met:
//
// Redistributions of source code must retain the above copyright notice, this
// list of conditions and the following disclaimer.
// Redistributions in binary form must reproduce the above copyright notice,
// this list of conditions and the following disclaimer in the documentation
// and/or other materials provided with the distribution.
//
// THIS SOFTWARE IS PROVIDED BY THE COPYRIGHT HOLDERS AND CONTRIBUTORS "AS IS"
// AND ANY EXPRESS OR IMPLIED WARRANTIES, INCLUDING, BUT NOT LIMITED TO, THE
// IMPLIED WARRANTIES OF MERCHANTABILITY AND FITNESS FOR A PARTICULAR PURPOSE
// ARE DISCLAIMED. IN NO EVENT SHALL THE COPYRIGHT OWNER OR CONTRIBUTORS BE
// LIABLE FOR ANY DIRECT, INDIRECT, INCIDENTAL, SPECIAL, EXEMPLARY, OR
// CONSEQUENTIAL DAMAGES (INCLUDING, BUT NOT LIMITED TO, PROCUREMENT OF
// SUBSTITUTE GOODS OR SERVICES; LOSS OF USE, DATA, OR PROFITS; OR BUSINESS
// INTERRUPTION) HOWEVER CAUSED AND ON ANY THEORY OF LIABILITY, WHETHER IN
// CONTRACT, STRICT LIABILITY, OR TORT (INCLUDING NEGLIGENCE OR OTHERWISE)
// ARISING IN ANY WAY OUT OF THE USE OF THIS SOFTWARE, EVEN IF ADVISED OF THE
// POSSIBILITY OF SUCH DAMAGE.

//8X8 mesh with 20 flits per packet under injection mode
//injection rate here is packet per cycle, NOT flit per cycle

// Topology

topology = mesh;
k = 8;
n = 2;

// Routing
routing_function = dor;

// Flow control
num_vcs     = 8;
vc_buf_size = 8;
wait_for_tail_credit = 1;

// Router architecture
vc_allocator = islip;
sw_allocator = islip;
alloc_iters  = 1;

credit_delay   = 2;
routing_delay  = 0;
vc_alloc_delay = 1;
sw_alloc_delay = 1;

input_speedup     = 2;
output_speedup    = 1;
internal_speedup  = 1.0;


// Traffic
traffic = uniform;
packet_size = 20;


// Simulation
sim_type = latency;

injection_rate = .034;


END Configuration File: ../../IL2236_project/verify/figure1/dor/mesh88_lat
Class 0:
Packet latency average = 252.691
	minimum = 29
	maximum = 718
Network latency average = 159.918
	minimum = 25
	maximum = 592
Slowest packet = 166
Flit latency average = 93.5264
	minimum = 6
	maximum = 519
Slowest flit = 11939
Fragmentation average = 88.199
	minimum = 0
	maximum = 266
Injected packet rate average = 0.0233906
	minimum = 0.014 (at node 26)
	maximum = 0.036 (at node 7)
Accepted packet rate average = 0.0188437
	minimum = 0.011 (at node 43)
	maximum = 0.026 (at node 27)
Injected flit rate average = 0.459906
	minimum = 0.279 (at node 26)
	maximum = 0.72 (at node 63)
Accepted flit rate average= 0.403109
	minimum = 0.273 (at node 54)
	maximum = 0.565 (at node 27)
Injected packet length average = 19.662
Accepted packet length average = 21.3922
Total in-flight flits = 4141 (0 measured)
latency change    = 1
throughput change = 1
Class 0:
Packet latency average = 424.575
	minimum = 29
	maximum = 1334
Network latency average = 181.082
	minimum = 25
	maximum = 687
Slowest packet = 166
Flit latency average = 108.685
	minimum = 6
	maximum = 649
Slowest flit = 24537
Fragmentation average = 94.6022
	minimum = 0
	maximum = 273
Injected packet rate average = 0.0225
	minimum = 0.014 (at node 61)
	maximum = 0.036 (at node 63)
Accepted packet rate average = 0.0202891
	minimum = 0.0165 (at node 29)
	maximum = 0.0265 (at node 12)
Injected flit rate average = 0.446367
	minimum = 0.278 (at node 61)
	maximum = 0.7195 (at node 63)
Accepted flit rate average= 0.418023
	minimum = 0.33 (at node 62)
	maximum = 0.5475 (at node 12)
Injected packet length average = 19.8385
Accepted packet length average = 20.6034
Total in-flight flits = 4093 (0 measured)
latency change    = 0.404838
throughput change = 0.0356776
Average latency for class 0 exceeded 500 cycles. Aborting simulation.
Too many sample periods needed to converge
Simulation unstable, ending ...
Total run time 2.05266
