BEGIN Configuration File: ../../IL2236_project/verify/figure1/dor/mesh88_lat
// $Id$

// Copyright (c) 2007-2015, Trustees of The Leland Stanford Junior University
// All rights reserved.
//
// Redistribution and use in source and binary forms, with or without
// modification, are permitted provided that the following conditions are met:
//
// Redistributions of source code must retain the above copyright notice, this
// list of conditions and the following disclaimer.
// Redistributions in binary form must reproduce the above copyright notice,
// this list of conditions and the following disclaimer in the documentation
// and/or other materials provided with the distribution.
//
// THIS SOFTWARE IS PROVIDED BY THE COPYRIGHT HOLDERS AND CONTRIBUTORS "AS IS"
// AND ANY EXPRESS OR IMPLIED WARRANTIES, INCLUDING, BUT NOT LIMITED TO, THE
// IMPLIED WARRANTIES OF MERCHANTABILITY AND FITNESS FOR A PARTICULAR PURPOSE
// ARE DISCLAIMED. IN NO EVENT SHALL THE COPYRIGHT OWNER OR CONTRIBUTORS BE
// LIABLE FOR ANY DIRECT, INDIRECT, INCIDENTAL, SPECIAL, EXEMPLARY, OR
// CONSEQUENTIAL DAMAGES (INCLUDING, BUT NOT LIMITED TO, PROCUREMENT OF
// SUBSTITUTE GOODS OR SERVICES; LOSS OF USE, DATA, OR PROFITS; OR BUSINESS
// INTERRUPTION) HOWEVER CAUSED AND ON ANY THEORY OF LIABILITY, WHETHER IN
// CONTRACT, STRICT LIABILITY, OR TORT (INCLUDING NEGLIGENCE OR OTHERWISE)
// ARISING IN ANY WAY OUT OF THE USE OF THIS SOFTWARE, EVEN IF ADVISED OF THE
// POSSIBILITY OF SUCH DAMAGE.

//8X8 mesh with 20 flits per packet under injection mode
//injection rate here is packet per cycle, NOT flit per cycle

// Topology

topology = mesh;
k = 8;
n = 2;

// Routing
routing_function = dor;

// Flow control
num_vcs     = 8;
vc_buf_size = 8;
wait_for_tail_credit = 1;

// Router architecture
vc_allocator = islip;
sw_allocator = islip;
alloc_iters  = 1;

credit_delay   = 2;
routing_delay  = 0;
vc_alloc_delay = 1;
sw_alloc_delay = 1;

input_speedup     = 2;
output_speedup    = 1;
internal_speedup  = 1.0;


// Traffic
traffic = uniform;
packet_size = 20;


// Simulation
sim_type = latency;

injection_rate = .035;


END Configuration File: ../../IL2236_project/verify/figure1/dor/mesh88_lat
Class 0:
Packet latency average = 258.651
	minimum = 25
	maximum = 746
Network latency average = 161.461
	minimum = 25
	maximum = 520
Slowest packet = 57
Flit latency average = 95.4879
	minimum = 6
	maximum = 492
Slowest flit = 15555
Fragmentation average = 88.4559
	minimum = 0
	maximum = 253
Injected packet rate average = 0.0237656
	minimum = 0.013 (at node 35)
	maximum = 0.036 (at node 1)
Accepted packet rate average = 0.0192969
	minimum = 0.011 (at node 43)
	maximum = 0.028 (at node 12)
Injected flit rate average = 0.468922
	minimum = 0.248 (at node 35)
	maximum = 0.716 (at node 1)
Accepted flit rate average= 0.412234
	minimum = 0.272 (at node 43)
	maximum = 0.585 (at node 27)
Injected packet length average = 19.7311
Accepted packet length average = 21.3628
Total in-flight flits = 4037 (0 measured)
latency change    = 1
throughput change = 1
Class 0:
Packet latency average = 430.288
	minimum = 25
	maximum = 1465
Network latency average = 185.258
	minimum = 25
	maximum = 684
Slowest packet = 57
Flit latency average = 114.862
	minimum = 6
	maximum = 702
Slowest flit = 38882
Fragmentation average = 92.6452
	minimum = 0
	maximum = 315
Injected packet rate average = 0.0231797
	minimum = 0.0155 (at node 30)
	maximum = 0.0345 (at node 8)
Accepted packet rate average = 0.0208516
	minimum = 0.0165 (at node 29)
	maximum = 0.0265 (at node 12)
Injected flit rate average = 0.460172
	minimum = 0.309 (at node 30)
	maximum = 0.6835 (at node 8)
Accepted flit rate average= 0.429164
	minimum = 0.3315 (at node 52)
	maximum = 0.5485 (at node 12)
Injected packet length average = 19.8524
Accepted packet length average = 20.5819
Total in-flight flits = 4407 (0 measured)
latency change    = 0.398888
throughput change = 0.0394481
Average latency for class 0 exceeded 500 cycles. Aborting simulation.
Too many sample periods needed to converge
Simulation unstable, ending ...
Total run time 2.11639
