BEGIN Configuration File: ../../IL2236_project/verify/figure1/dor/mesh88_lat
// $Id$

// Copyright (c) 2007-2015, Trustees of The Leland Stanford Junior University
// All rights reserved.
//
// Redistribution and use in source and binary forms, with or without
// modification, are permitted provided that the following conditions are met:
//
// Redistributions of source code must retain the above copyright notice, this
// list of conditions and the following disclaimer.
// Redistributions in binary form must reproduce the above copyright notice,
// this list of conditions and the following disclaimer in the documentation
// and/or other materials provided with the distribution.
//
// THIS SOFTWARE IS PROVIDED BY THE COPYRIGHT HOLDERS AND CONTRIBUTORS "AS IS"
// AND ANY EXPRESS OR IMPLIED WARRANTIES, INCLUDING, BUT NOT LIMITED TO, THE
// IMPLIED WARRANTIES OF MERCHANTABILITY AND FITNESS FOR A PARTICULAR PURPOSE
// ARE DISCLAIMED. IN NO EVENT SHALL THE COPYRIGHT OWNER OR CONTRIBUTORS BE
// LIABLE FOR ANY DIRECT, INDIRECT, INCIDENTAL, SPECIAL, EXEMPLARY, OR
// CONSEQUENTIAL DAMAGES (INCLUDING, BUT NOT LIMITED TO, PROCUREMENT OF
// SUBSTITUTE GOODS OR SERVICES; LOSS OF USE, DATA, OR PROFITS; OR BUSINESS
// INTERRUPTION) HOWEVER CAUSED AND ON ANY THEORY OF LIABILITY, WHETHER IN
// CONTRACT, STRICT LIABILITY, OR TORT (INCLUDING NEGLIGENCE OR OTHERWISE)
// ARISING IN ANY WAY OUT OF THE USE OF THIS SOFTWARE, EVEN IF ADVISED OF THE
// POSSIBILITY OF SUCH DAMAGE.

//8X8 mesh with 20 flits per packet under injection mode
//injection rate here is packet per cycle, NOT flit per cycle

// Topology

topology = mesh;
k = 8;
n = 2;

// Routing
routing_function = dor;

// Flow control
num_vcs     = 8;
vc_buf_size = 8;
wait_for_tail_credit = 1;

// Router architecture
vc_allocator = islip;
sw_allocator = islip;
alloc_iters  = 1;

credit_delay   = 2;
routing_delay  = 0;
vc_alloc_delay = 1;
sw_alloc_delay = 1;

input_speedup     = 2;
output_speedup    = 1;
internal_speedup  = 1.0;


// Traffic
traffic = uniform;
packet_size = 20;


// Simulation
sim_type = latency;

injection_rate = .036;


END Configuration File: ../../IL2236_project/verify/figure1/dor/mesh88_lat
Class 0:
Packet latency average = 266.991
	minimum = 25
	maximum = 777
Network latency average = 168.297
	minimum = 25
	maximum = 567
Slowest packet = 237
Flit latency average = 98.5085
	minimum = 6
	maximum = 530
Slowest flit = 11076
Fragmentation average = 92.7209
	minimum = 0
	maximum = 265
Injected packet rate average = 0.023625
	minimum = 0.014 (at node 41)
	maximum = 0.039 (at node 63)
Accepted packet rate average = 0.0190312
	minimum = 0.011 (at node 43)
	maximum = 0.026 (at node 12)
Injected flit rate average = 0.465078
	minimum = 0.268 (at node 45)
	maximum = 0.771 (at node 63)
Accepted flit rate average= 0.406984
	minimum = 0.27 (at node 43)
	maximum = 0.555 (at node 24)
Injected packet length average = 19.6858
Accepted packet length average = 21.3851
Total in-flight flits = 4193 (0 measured)
latency change    = 1
throughput change = 1
Class 0:
Packet latency average = 443.651
	minimum = 25
	maximum = 1399
Network latency average = 182.098
	minimum = 25
	maximum = 768
Slowest packet = 237
Flit latency average = 109.543
	minimum = 6
	maximum = 747
Slowest flit = 25859
Fragmentation average = 94.2132
	minimum = 0
	maximum = 283
Injected packet rate average = 0.0228984
	minimum = 0.0145 (at node 44)
	maximum = 0.0385 (at node 63)
Accepted packet rate average = 0.0207031
	minimum = 0.0155 (at node 19)
	maximum = 0.0265 (at node 39)
Injected flit rate average = 0.454648
	minimum = 0.284 (at node 44)
	maximum = 0.769 (at node 63)
Accepted flit rate average= 0.425086
	minimum = 0.3305 (at node 52)
	maximum = 0.5375 (at node 39)
Injected packet length average = 19.855
Accepted packet length average = 20.5325
Total in-flight flits = 4209 (0 measured)
latency change    = 0.398196
throughput change = 0.0425833
Average latency for class 0 exceeded 500 cycles. Aborting simulation.
Too many sample periods needed to converge
Simulation unstable, ending ...
Total run time 2.07711
