BEGIN Configuration File: ../../IL2236_project/verify/figure1/dor/mesh88_lat
// $Id$

// Copyright (c) 2007-2015, Trustees of The Leland Stanford Junior University
// All rights reserved.
//
// Redistribution and use in source and binary forms, with or without
// modification, are permitted provided that the following conditions are met:
//
// Redistributions of source code must retain the above copyright notice, this
// list of conditions and the following disclaimer.
// Redistributions in binary form must reproduce the above copyright notice,
// this list of conditions and the following disclaimer in the documentation
// and/or other materials provided with the distribution.
//
// THIS SOFTWARE IS PROVIDED BY THE COPYRIGHT HOLDERS AND CONTRIBUTORS "AS IS"
// AND ANY EXPRESS OR IMPLIED WARRANTIES, INCLUDING, BUT NOT LIMITED TO, THE
// IMPLIED WARRANTIES OF MERCHANTABILITY AND FITNESS FOR A PARTICULAR PURPOSE
// ARE DISCLAIMED. IN NO EVENT SHALL THE COPYRIGHT OWNER OR CONTRIBUTORS BE
// LIABLE FOR ANY DIRECT, INDIRECT, INCIDENTAL, SPECIAL, EXEMPLARY, OR
// CONSEQUENTIAL DAMAGES (INCLUDING, BUT NOT LIMITED TO, PROCUREMENT OF
// SUBSTITUTE GOODS OR SERVICES; LOSS OF USE, DATA, OR PROFITS; OR BUSINESS
// INTERRUPTION) HOWEVER CAUSED AND ON ANY THEORY OF LIABILITY, WHETHER IN
// CONTRACT, STRICT LIABILITY, OR TORT (INCLUDING NEGLIGENCE OR OTHERWISE)
// ARISING IN ANY WAY OUT OF THE USE OF THIS SOFTWARE, EVEN IF ADVISED OF THE
// POSSIBILITY OF SUCH DAMAGE.

//8X8 mesh with 20 flits per packet under injection mode
//injection rate here is packet per cycle, NOT flit per cycle

// Topology

topology = mesh;
k = 8;
n = 2;

// Routing
routing_function = dor;

// Flow control
num_vcs     = 8;
vc_buf_size = 8;
wait_for_tail_credit = 1;

// Router architecture
vc_allocator = islip;
sw_allocator = islip;
alloc_iters  = 1;

credit_delay   = 2;
routing_delay  = 0;
vc_alloc_delay = 1;
sw_alloc_delay = 1;

input_speedup     = 2;
output_speedup    = 1;
internal_speedup  = 1.0;


// Traffic
traffic = uniform;
packet_size = 20;


// Simulation
sim_type = latency;

injection_rate = .039;


END Configuration File: ../../IL2236_project/verify/figure1/dor/mesh88_lat
Class 0:
Packet latency average = 294.545
	minimum = 25
	maximum = 796
Network latency average = 167.418
	minimum = 25
	maximum = 526
Slowest packet = 32
Flit latency average = 98.2145
	minimum = 6
	maximum = 490
Slowest flit = 4639
Fragmentation average = 90.27
	minimum = 0
	maximum = 279
Injected packet rate average = 0.0237031
	minimum = 0.013 (at node 58)
	maximum = 0.036 (at node 32)
Accepted packet rate average = 0.0191562
	minimum = 0.01 (at node 43)
	maximum = 0.028 (at node 60)
Injected flit rate average = 0.464406
	minimum = 0.252 (at node 58)
	maximum = 0.72 (at node 32)
Accepted flit rate average= 0.411641
	minimum = 0.271 (at node 43)
	maximum = 0.6 (at node 27)
Injected packet length average = 19.5926
Accepted packet length average = 21.4886
Total in-flight flits = 3995 (0 measured)
latency change    = 1
throughput change = 1
Class 0:
Packet latency average = 492.513
	minimum = 25
	maximum = 1494
Network latency average = 187.672
	minimum = 25
	maximum = 938
Slowest packet = 32
Flit latency average = 115.11
	minimum = 6
	maximum = 902
Slowest flit = 23719
Fragmentation average = 93.9226
	minimum = 0
	maximum = 279
Injected packet rate average = 0.022625
	minimum = 0.014 (at node 58)
	maximum = 0.036 (at node 32)
Accepted packet rate average = 0.0204844
	minimum = 0.0155 (at node 46)
	maximum = 0.0255 (at node 12)
Injected flit rate average = 0.448914
	minimum = 0.2755 (at node 58)
	maximum = 0.72 (at node 32)
Accepted flit rate average= 0.419977
	minimum = 0.334 (at node 46)
	maximum = 0.516 (at node 12)
Injected packet length average = 19.8415
Accepted packet length average = 20.5023
Total in-flight flits = 4163 (0 measured)
latency change    = 0.401955
throughput change = 0.0198486
Average latency for class 0 exceeded 500 cycles. Aborting simulation.
Too many sample periods needed to converge
Simulation unstable, ending ...
Total run time 2.08735
