BEGIN Configuration File: ../../IL2236_project/verify/figure1/dor/mesh88_lat
// $Id$

// Copyright (c) 2007-2015, Trustees of The Leland Stanford Junior University
// All rights reserved.
//
// Redistribution and use in source and binary forms, with or without
// modification, are permitted provided that the following conditions are met:
//
// Redistributions of source code must retain the above copyright notice, this
// list of conditions and the following disclaimer.
// Redistributions in binary form must reproduce the above copyright notice,
// this list of conditions and the following disclaimer in the documentation
// and/or other materials provided with the distribution.
//
// THIS SOFTWARE IS PROVIDED BY THE COPYRIGHT HOLDERS AND CONTRIBUTORS "AS IS"
// AND ANY EXPRESS OR IMPLIED WARRANTIES, INCLUDING, BUT NOT LIMITED TO, THE
// IMPLIED WARRANTIES OF MERCHANTABILITY AND FITNESS FOR A PARTICULAR PURPOSE
// ARE DISCLAIMED. IN NO EVENT SHALL THE COPYRIGHT OWNER OR CONTRIBUTORS BE
// LIABLE FOR ANY DIRECT, INDIRECT, INCIDENTAL, SPECIAL, EXEMPLARY, OR
// CONSEQUENTIAL DAMAGES (INCLUDING, BUT NOT LIMITED TO, PROCUREMENT OF
// SUBSTITUTE GOODS OR SERVICES; LOSS OF USE, DATA, OR PROFITS; OR BUSINESS
// INTERRUPTION) HOWEVER CAUSED AND ON ANY THEORY OF LIABILITY, WHETHER IN
// CONTRACT, STRICT LIABILITY, OR TORT (INCLUDING NEGLIGENCE OR OTHERWISE)
// ARISING IN ANY WAY OUT OF THE USE OF THIS SOFTWARE, EVEN IF ADVISED OF THE
// POSSIBILITY OF SUCH DAMAGE.

//8X8 mesh with 20 flits per packet under injection mode
//injection rate here is packet per cycle, NOT flit per cycle

// Topology

topology = mesh;
k = 8;
n = 2;

// Routing
routing_function = dor;

// Flow control
num_vcs     = 8;
vc_buf_size = 8;
wait_for_tail_credit = 1;

// Router architecture
vc_allocator = islip;
sw_allocator = islip;
alloc_iters  = 1;

credit_delay   = 2;
routing_delay  = 0;
vc_alloc_delay = 1;
sw_alloc_delay = 1;

input_speedup     = 2;
output_speedup    = 1;
internal_speedup  = 1.0;


// Traffic
traffic = uniform;
packet_size = 20;


// Simulation
sim_type = latency;

injection_rate = .040;


END Configuration File: ../../IL2236_project/verify/figure1/dor/mesh88_lat
Class 0:
Packet latency average = 285.993
	minimum = 25
	maximum = 732
Network latency average = 162.966
	minimum = 25
	maximum = 516
Slowest packet = 204
Flit latency average = 94.3468
	minimum = 6
	maximum = 480
Slowest flit = 12439
Fragmentation average = 90.4038
	minimum = 0
	maximum = 304
Injected packet rate average = 0.0240938
	minimum = 0.013 (at node 10)
	maximum = 0.038 (at node 8)
Accepted packet rate average = 0.0195
	minimum = 0.012 (at node 43)
	maximum = 0.03 (at node 27)
Injected flit rate average = 0.473422
	minimum = 0.252 (at node 10)
	maximum = 0.75 (at node 8)
Accepted flit rate average= 0.416891
	minimum = 0.299 (at node 29)
	maximum = 0.638 (at node 27)
Injected packet length average = 19.6492
Accepted packet length average = 21.379
Total in-flight flits = 4159 (0 measured)
latency change    = 1
throughput change = 1
Class 0:
Packet latency average = 494.09
	minimum = 25
	maximum = 1401
Network latency average = 182.443
	minimum = 25
	maximum = 762
Slowest packet = 204
Flit latency average = 111.985
	minimum = 6
	maximum = 741
Slowest flit = 18499
Fragmentation average = 92.7082
	minimum = 0
	maximum = 304
Injected packet rate average = 0.0232578
	minimum = 0.0105 (at node 51)
	maximum = 0.037 (at node 56)
Accepted packet rate average = 0.0207734
	minimum = 0.016 (at node 62)
	maximum = 0.0275 (at node 12)
Injected flit rate average = 0.460781
	minimum = 0.204 (at node 51)
	maximum = 0.7315 (at node 56)
Accepted flit rate average= 0.427852
	minimum = 0.332 (at node 46)
	maximum = 0.557 (at node 12)
Injected packet length average = 19.8119
Accepted packet length average = 20.5961
Total in-flight flits = 4775 (0 measured)
latency change    = 0.421173
throughput change = 0.0256186
Average latency for class 0 exceeded 500 cycles. Aborting simulation.
Too many sample periods needed to converge
Simulation unstable, ending ...
Total run time 2.12058
