BEGIN Configuration File: ../../IL2236_project/verify/figure7/48/mesh88_lat
// $Id$

// Copyright (c) 2007-2015, Trustees of The Leland Stanford Junior University
// All rights reserved.
//
// Redistribution and use in source and binary forms, with or without
// modification, are permitted provided that the following conditions are met:
//
// Redistributions of source code must retain the above copyright notice, this
// list of conditions and the following disclaimer.
// Redistributions in binary form must reproduce the above copyright notice,
// this list of conditions and the following disclaimer in the documentation
// and/or other materials provided with the distribution.
//
// THIS SOFTWARE IS PROVIDED BY THE COPYRIGHT HOLDERS AND CONTRIBUTORS "AS IS"
// AND ANY EXPRESS OR IMPLIED WARRANTIES, INCLUDING, BUT NOT LIMITED TO, THE
// IMPLIED WARRANTIES OF MERCHANTABILITY AND FITNESS FOR A PARTICULAR PURPOSE
// ARE DISCLAIMED. IN NO EVENT SHALL THE COPYRIGHT OWNER OR CONTRIBUTORS BE
// LIABLE FOR ANY DIRECT, INDIRECT, INCIDENTAL, SPECIAL, EXEMPLARY, OR
// CONSEQUENTIAL DAMAGES (INCLUDING, BUT NOT LIMITED TO, PROCUREMENT OF
// SUBSTITUTE GOODS OR SERVICES; LOSS OF USE, DATA, OR PROFITS; OR BUSINESS
// INTERRUPTION) HOWEVER CAUSED AND ON ANY THEORY OF LIABILITY, WHETHER IN
// CONTRACT, STRICT LIABILITY, OR TORT (INCLUDING NEGLIGENCE OR OTHERWISE)
// ARISING IN ANY WAY OUT OF THE USE OF THIS SOFTWARE, EVEN IF ADVISED OF THE
// POSSIBILITY OF SUCH DAMAGE.

//8X8 mesh with 20 flits per packet under injection mode
//injection rate here is packet per cycle, NOT flit per cycle

// Topology

topology = mesh;
k = 8;
n = 2;

// Routing
routing_function = dor;

// Flow control
num_vcs     = 4;
vc_buf_size = 8;
wait_for_tail_credit = 1;

// Router architecture
vc_allocator = islip;
sw_allocator = islip;
alloc_iters  = 1;

credit_delay   = 2;
routing_delay  = 0;
vc_alloc_delay = 1;
sw_alloc_delay = 1;

input_speedup     = 2;
output_speedup    = 1;
internal_speedup  = 1.0;


// Traffic
traffic = uniform;
packet_size = 20;


// Simulation
sim_type = latency;

injection_rate = .0030;


END Configuration File: ../../IL2236_project/verify/figure7/48/mesh88_lat
Class 0:
Packet latency average = 50.5172
	minimum = 25
	maximum = 107
Network latency average = 49.9655
	minimum = 25
	maximum = 95
Slowest packet = 87
Flit latency average = 29.3128
	minimum = 6
	maximum = 73
Slowest flit = 1879
Fragmentation average = 2.92529
	minimum = 0
	maximum = 31
Injected packet rate average = 0.0028125
	minimum = 0 (at node 14)
	maximum = 0.009 (at node 62)
Accepted packet rate average = 0.00271875
	minimum = 0 (at node 20)
	maximum = 0.008 (at node 18)
Injected flit rate average = 0.0555937
	minimum = 0 (at node 14)
	maximum = 0.18 (at node 62)
Accepted flit rate average= 0.0546563
	minimum = 0 (at node 20)
	maximum = 0.16 (at node 18)
Injected packet length average = 19.7667
Accepted packet length average = 20.1034
Total in-flight flits = 102 (0 measured)
latency change    = 1
throughput change = 1
Class 0:
Packet latency average = 48.6218
	minimum = 25
	maximum = 107
Network latency average = 48.0364
	minimum = 25
	maximum = 95
Slowest packet = 87
Flit latency average = 27.6277
	minimum = 6
	maximum = 73
Slowest flit = 1879
Fragmentation average = 2.507
	minimum = 0
	maximum = 31
Injected packet rate average = 0.00285937
	minimum = 0.0005 (at node 46)
	maximum = 0.0065 (at node 35)
Accepted packet rate average = 0.00278906
	minimum = 0.0005 (at node 29)
	maximum = 0.006 (at node 18)
Injected flit rate average = 0.0568281
	minimum = 0.01 (at node 46)
	maximum = 0.13 (at node 35)
Accepted flit rate average= 0.0560078
	minimum = 0.01 (at node 37)
	maximum = 0.12 (at node 18)
Injected packet length average = 19.8743
Accepted packet length average = 20.0812
Total in-flight flits = 151 (0 measured)
latency change    = 0.0389823
throughput change = 0.0241317
Class 0:
Packet latency average = 49.474
	minimum = 25
	maximum = 93
Network latency average = 48.901
	minimum = 25
	maximum = 93
Slowest packet = 502
Flit latency average = 28.2402
	minimum = 6
	maximum = 74
Slowest flit = 10056
Fragmentation average = 2.875
	minimum = 0
	maximum = 31
Injected packet rate average = 0.00303125
	minimum = 0 (at node 9)
	maximum = 0.009 (at node 50)
Accepted packet rate average = 0.003
	minimum = 0 (at node 22)
	maximum = 0.007 (at node 34)
Injected flit rate average = 0.061
	minimum = 0 (at node 9)
	maximum = 0.179 (at node 50)
Accepted flit rate average= 0.0604219
	minimum = 0 (at node 22)
	maximum = 0.14 (at node 34)
Injected packet length average = 20.1237
Accepted packet length average = 20.1406
Total in-flight flits = 164 (0 measured)
latency change    = 0.0172234
throughput change = 0.073054
Warmed up ...Time used is 3000 cycles
Class 0:
Packet latency average = 51.1348
	minimum = 25
	maximum = 98
Network latency average = 50.7022
	minimum = 25
	maximum = 79
Slowest packet = 586
Flit latency average = 29.9815
	minimum = 6
	maximum = 63
Slowest flit = 11119
Fragmentation average = 3.4382
	minimum = 0
	maximum = 23
Injected packet rate average = 0.00296875
	minimum = 0.001 (at node 3)
	maximum = 0.007 (at node 62)
Accepted packet rate average = 0.00295313
	minimum = 0 (at node 23)
	maximum = 0.007 (at node 6)
Injected flit rate average = 0.0594375
	minimum = 0.02 (at node 3)
	maximum = 0.14 (at node 62)
Accepted flit rate average= 0.0598125
	minimum = 0 (at node 23)
	maximum = 0.14 (at node 6)
Injected packet length average = 20.0211
Accepted packet length average = 20.254
Total in-flight flits = 136 (136 measured)
latency change    = 0.0324803
throughput change = 0.0101881
Class 0:
Packet latency average = 50.6152
	minimum = 25
	maximum = 98
Network latency average = 50.0904
	minimum = 25
	maximum = 87
Slowest packet = 586
Flit latency average = 28.9413
	minimum = 6
	maximum = 68
Slowest flit = 16499
Fragmentation average = 4.12828
	minimum = 0
	maximum = 41
Injected packet rate average = 0.00275
	minimum = 0.001 (at node 12)
	maximum = 0.006 (at node 30)
Accepted packet rate average = 0.00276562
	minimum = 0.0005 (at node 15)
	maximum = 0.0065 (at node 37)
Injected flit rate average = 0.0548047
	minimum = 0.02 (at node 12)
	maximum = 0.12 (at node 30)
Accepted flit rate average= 0.0552656
	minimum = 0.0055 (at node 15)
	maximum = 0.125 (at node 37)
Injected packet length average = 19.929
Accepted packet length average = 19.9831
Total in-flight flits = 130 (130 measured)
latency change    = 0.0102671
throughput change = 0.0822731
Class 0:
Packet latency average = 50.4934
	minimum = 25
	maximum = 98
Network latency average = 49.6735
	minimum = 25
	maximum = 90
Slowest packet = 586
Flit latency average = 28.5148
	minimum = 6
	maximum = 71
Slowest flit = 21415
Fragmentation average = 4.05629
	minimum = 0
	maximum = 41
Injected packet rate average = 0.00280729
	minimum = 0.001 (at node 8)
	maximum = 0.00533333 (at node 30)
Accepted packet rate average = 0.00283333
	minimum = 0.000333333 (at node 46)
	maximum = 0.005 (at node 37)
Injected flit rate average = 0.056224
	minimum = 0.02 (at node 8)
	maximum = 0.106667 (at node 30)
Accepted flit rate average= 0.0564531
	minimum = 0.00666667 (at node 46)
	maximum = 0.0966667 (at node 37)
Injected packet length average = 20.0278
Accepted packet length average = 19.9246
Total in-flight flits = 105 (105 measured)
latency change    = 0.00241075
throughput change = 0.0210352
Class 0:
Packet latency average = 50.3752
	minimum = 25
	maximum = 108
Network latency average = 49.6071
	minimum = 25
	maximum = 108
Slowest packet = 1144
Flit latency average = 28.5028
	minimum = 6
	maximum = 89
Slowest flit = 22899
Fragmentation average = 3.89086
	minimum = 0
	maximum = 41
Injected packet rate average = 0.00289453
	minimum = 0.0015 (at node 8)
	maximum = 0.005 (at node 45)
Accepted packet rate average = 0.00290625
	minimum = 0.00075 (at node 46)
	maximum = 0.005 (at node 9)
Injected flit rate average = 0.0578164
	minimum = 0.03 (at node 8)
	maximum = 0.1 (at node 45)
Accepted flit rate average= 0.0580977
	minimum = 0.015 (at node 46)
	maximum = 0.1 (at node 9)
Injected packet length average = 19.9744
Accepted packet length average = 19.9906
Total in-flight flits = 111 (111 measured)
latency change    = 0.00234764
throughput change = 0.0283063
Class 0:
Packet latency average = 50.6374
	minimum = 25
	maximum = 108
Network latency average = 49.8491
	minimum = 25
	maximum = 108
Slowest packet = 1144
Flit latency average = 28.6779
	minimum = 6
	maximum = 89
Slowest flit = 22899
Fragmentation average = 3.97937
	minimum = 0
	maximum = 46
Injected packet rate average = 0.0029125
	minimum = 0.0014 (at node 33)
	maximum = 0.0046 (at node 30)
Accepted packet rate average = 0.0029125
	minimum = 0.0012 (at node 46)
	maximum = 0.0054 (at node 27)
Injected flit rate average = 0.0582656
	minimum = 0.028 (at node 33)
	maximum = 0.092 (at node 30)
Accepted flit rate average= 0.0582906
	minimum = 0.024 (at node 46)
	maximum = 0.108 (at node 27)
Injected packet length average = 20.0054
Accepted packet length average = 20.0139
Total in-flight flits = 151 (151 measured)
latency change    = 0.0051776
throughput change = 0.00331046
Draining all recorded packets ...
Draining remaining packets ...
Time taken is 8098 cycles
====== Overall Traffic Statistics ======
====== Traffic class 0 ======
Packet latency average = 50.7854 (1 samples)
	minimum = 25 (1 samples)
	maximum = 108 (1 samples)
Network latency average = 49.9871 (1 samples)
	minimum = 25 (1 samples)
	maximum = 108 (1 samples)
Flit latency average = 28.6597 (1 samples)
	minimum = 6 (1 samples)
	maximum = 89 (1 samples)
Fragmentation average = 4.10622 (1 samples)
	minimum = 0 (1 samples)
	maximum = 55 (1 samples)
Injected packet rate average = 0.0029125 (1 samples)
	minimum = 0.0014 (1 samples)
	maximum = 0.0046 (1 samples)
Accepted packet rate average = 0.0029125 (1 samples)
	minimum = 0.0012 (1 samples)
	maximum = 0.0054 (1 samples)
Injected flit rate average = 0.0582656 (1 samples)
	minimum = 0.028 (1 samples)
	maximum = 0.092 (1 samples)
Accepted flit rate average = 0.0582906 (1 samples)
	minimum = 0.024 (1 samples)
	maximum = 0.108 (1 samples)
Injected packet size average = 20.0054 (1 samples)
Accepted packet size average = 20.0139 (1 samples)
Hops average = 6.21245 (1 samples)
Total run time 1.37481
