BEGIN Configuration File: ../../IL2236_project/verify/figure7/48/mesh88_lat
// $Id$

// Copyright (c) 2007-2015, Trustees of The Leland Stanford Junior University
// All rights reserved.
//
// Redistribution and use in source and binary forms, with or without
// modification, are permitted provided that the following conditions are met:
//
// Redistributions of source code must retain the above copyright notice, this
// list of conditions and the following disclaimer.
// Redistributions in binary form must reproduce the above copyright notice,
// this list of conditions and the following disclaimer in the documentation
// and/or other materials provided with the distribution.
//
// THIS SOFTWARE IS PROVIDED BY THE COPYRIGHT HOLDERS AND CONTRIBUTORS "AS IS"
// AND ANY EXPRESS OR IMPLIED WARRANTIES, INCLUDING, BUT NOT LIMITED TO, THE
// IMPLIED WARRANTIES OF MERCHANTABILITY AND FITNESS FOR A PARTICULAR PURPOSE
// ARE DISCLAIMED. IN NO EVENT SHALL THE COPYRIGHT OWNER OR CONTRIBUTORS BE
// LIABLE FOR ANY DIRECT, INDIRECT, INCIDENTAL, SPECIAL, EXEMPLARY, OR
// CONSEQUENTIAL DAMAGES (INCLUDING, BUT NOT LIMITED TO, PROCUREMENT OF
// SUBSTITUTE GOODS OR SERVICES; LOSS OF USE, DATA, OR PROFITS; OR BUSINESS
// INTERRUPTION) HOWEVER CAUSED AND ON ANY THEORY OF LIABILITY, WHETHER IN
// CONTRACT, STRICT LIABILITY, OR TORT (INCLUDING NEGLIGENCE OR OTHERWISE)
// ARISING IN ANY WAY OUT OF THE USE OF THIS SOFTWARE, EVEN IF ADVISED OF THE
// POSSIBILITY OF SUCH DAMAGE.

//8X8 mesh with 20 flits per packet under injection mode
//injection rate here is packet per cycle, NOT flit per cycle

// Topology

topology = mesh;
k = 8;
n = 2;

// Routing
routing_function = dor;

// Flow control
num_vcs     = 4;
vc_buf_size = 8;
wait_for_tail_credit = 1;

// Router architecture
vc_allocator = islip;
sw_allocator = islip;
alloc_iters  = 1;

credit_delay   = 2;
routing_delay  = 0;
vc_alloc_delay = 1;
sw_alloc_delay = 1;

input_speedup     = 2;
output_speedup    = 1;
internal_speedup  = 1.0;


// Traffic
traffic = uniform;
packet_size = 20;


// Simulation
sim_type = latency;

injection_rate = .0075;


END Configuration File: ../../IL2236_project/verify/figure7/48/mesh88_lat
Class 0:
Packet latency average = 59.5495
	minimum = 25
	maximum = 118
Network latency average = 57.8821
	minimum = 25
	maximum = 118
Slowest packet = 193
Flit latency average = 32.1198
	minimum = 6
	maximum = 96
Slowest flit = 1119
Fragmentation average = 12.1745
	minimum = 0
	maximum = 63
Injected packet rate average = 0.00698438
	minimum = 0.002 (at node 4)
	maximum = 0.012 (at node 28)
Accepted packet rate average = 0.006625
	minimum = 0.001 (at node 37)
	maximum = 0.013 (at node 12)
Injected flit rate average = 0.138484
	minimum = 0.04 (at node 4)
	maximum = 0.24 (at node 28)
Accepted flit rate average= 0.134219
	minimum = 0.02 (at node 37)
	maximum = 0.26 (at node 12)
Injected packet length average = 19.8277
Accepted packet length average = 20.2594
Total in-flight flits = 350 (0 measured)
latency change    = 1
throughput change = 1
Class 0:
Packet latency average = 58.0694
	minimum = 25
	maximum = 148
Network latency average = 56.4039
	minimum = 25
	maximum = 133
Slowest packet = 632
Flit latency average = 31.4174
	minimum = 6
	maximum = 114
Slowest flit = 12657
Fragmentation average = 10.81
	minimum = 0
	maximum = 63
Injected packet rate average = 0.007125
	minimum = 0.003 (at node 59)
	maximum = 0.012 (at node 34)
Accepted packet rate average = 0.00686719
	minimum = 0.0035 (at node 54)
	maximum = 0.0115 (at node 12)
Injected flit rate average = 0.141437
	minimum = 0.06 (at node 59)
	maximum = 0.24 (at node 34)
Accepted flit rate average= 0.138805
	minimum = 0.07 (at node 54)
	maximum = 0.23 (at node 12)
Injected packet length average = 19.8509
Accepted packet length average = 20.2127
Total in-flight flits = 473 (0 measured)
latency change    = 0.025489
throughput change = 0.0330388
Class 0:
Packet latency average = 64.0565
	minimum = 25
	maximum = 169
Network latency average = 62.0302
	minimum = 25
	maximum = 169
Slowest packet = 908
Flit latency average = 34.6725
	minimum = 6
	maximum = 150
Slowest flit = 18179
Fragmentation average = 14.7823
	minimum = 0
	maximum = 67
Injected packet rate average = 0.0076875
	minimum = 0.002 (at node 0)
	maximum = 0.014 (at node 2)
Accepted packet rate average = 0.00775
	minimum = 0.002 (at node 45)
	maximum = 0.015 (at node 27)
Injected flit rate average = 0.15425
	minimum = 0.04 (at node 0)
	maximum = 0.282 (at node 20)
Accepted flit rate average= 0.154922
	minimum = 0.04 (at node 45)
	maximum = 0.295 (at node 27)
Injected packet length average = 20.065
Accepted packet length average = 19.9899
Total in-flight flits = 398 (0 measured)
latency change    = 0.0934653
throughput change = 0.104034
Warmed up ...Time used is 3000 cycles
Class 0:
Packet latency average = 58.594
	minimum = 25
	maximum = 124
Network latency average = 56.8761
	minimum = 25
	maximum = 119
Slowest packet = 1461
Flit latency average = 31.8302
	minimum = 6
	maximum = 97
Slowest flit = 29239
Fragmentation average = 11.1399
	minimum = 0
	maximum = 60
Injected packet rate average = 0.00720313
	minimum = 0.002 (at node 41)
	maximum = 0.013 (at node 20)
Accepted packet rate average = 0.00726563
	minimum = 0.002 (at node 20)
	maximum = 0.014 (at node 5)
Injected flit rate average = 0.143875
	minimum = 0.04 (at node 41)
	maximum = 0.26 (at node 20)
Accepted flit rate average= 0.144453
	minimum = 0.026 (at node 29)
	maximum = 0.272 (at node 40)
Injected packet length average = 19.974
Accepted packet length average = 19.8817
Total in-flight flits = 373 (373 measured)
latency change    = 0.0932248
throughput change = 0.0724716
Class 0:
Packet latency average = 59.125
	minimum = 25
	maximum = 161
Network latency average = 57.1419
	minimum = 25
	maximum = 119
Slowest packet = 1461
Flit latency average = 31.9729
	minimum = 6
	maximum = 100
Slowest flit = 42799
Fragmentation average = 11.1757
	minimum = 0
	maximum = 62
Injected packet rate average = 0.00715625
	minimum = 0.003 (at node 1)
	maximum = 0.0125 (at node 10)
Accepted packet rate average = 0.00716406
	minimum = 0.0025 (at node 53)
	maximum = 0.0115 (at node 40)
Injected flit rate average = 0.143141
	minimum = 0.0605 (at node 1)
	maximum = 0.25 (at node 10)
Accepted flit rate average= 0.14332
	minimum = 0.05 (at node 53)
	maximum = 0.23 (at node 40)
Injected packet length average = 20.0022
Accepted packet length average = 20.0055
Total in-flight flits = 373 (373 measured)
latency change    = 0.00898035
throughput change = 0.00790406
Class 0:
Packet latency average = 59.3446
	minimum = 25
	maximum = 161
Network latency average = 57.4057
	minimum = 25
	maximum = 159
Slowest packet = 1461
Flit latency average = 32.1368
	minimum = 6
	maximum = 140
Slowest flit = 46199
Fragmentation average = 11.2662
	minimum = 0
	maximum = 73
Injected packet rate average = 0.00703125
	minimum = 0.00333333 (at node 1)
	maximum = 0.011 (at node 43)
Accepted packet rate average = 0.00705729
	minimum = 0.00333333 (at node 52)
	maximum = 0.0106667 (at node 45)
Injected flit rate average = 0.140552
	minimum = 0.0616667 (at node 1)
	maximum = 0.217 (at node 43)
Accepted flit rate average= 0.140552
	minimum = 0.0666667 (at node 52)
	maximum = 0.213333 (at node 45)
Injected packet length average = 19.9896
Accepted packet length average = 19.9159
Total in-flight flits = 412 (412 measured)
latency change    = 0.00370119
throughput change = 0.0196954
Class 0:
Packet latency average = 60.0786
	minimum = 25
	maximum = 161
Network latency average = 58.201
	minimum = 25
	maximum = 159
Slowest packet = 1461
Flit latency average = 32.7138
	minimum = 6
	maximum = 140
Slowest flit = 46199
Fragmentation average = 11.7569
	minimum = 0
	maximum = 73
Injected packet rate average = 0.00717578
	minimum = 0.0035 (at node 1)
	maximum = 0.011 (at node 43)
Accepted packet rate average = 0.00716797
	minimum = 0.0045 (at node 52)
	maximum = 0.00975 (at node 22)
Injected flit rate average = 0.143406
	minimum = 0.07025 (at node 1)
	maximum = 0.22 (at node 43)
Accepted flit rate average= 0.143238
	minimum = 0.09 (at node 52)
	maximum = 0.194 (at node 22)
Injected packet length average = 19.9848
Accepted packet length average = 19.9831
Total in-flight flits = 469 (469 measured)
latency change    = 0.012217
throughput change = 0.0187534
Draining all recorded packets ...
Draining remaining packets ...
Time taken is 7149 cycles
====== Overall Traffic Statistics ======
====== Traffic class 0 ======
Packet latency average = 60.2779 (1 samples)
	minimum = 25 (1 samples)
	maximum = 161 (1 samples)
Network latency average = 58.3458 (1 samples)
	minimum = 25 (1 samples)
	maximum = 159 (1 samples)
Flit latency average = 32.7303 (1 samples)
	minimum = 6 (1 samples)
	maximum = 140 (1 samples)
Fragmentation average = 11.8102 (1 samples)
	minimum = 0 (1 samples)
	maximum = 73 (1 samples)
Injected packet rate average = 0.00717578 (1 samples)
	minimum = 0.0035 (1 samples)
	maximum = 0.011 (1 samples)
Accepted packet rate average = 0.00716797 (1 samples)
	minimum = 0.0045 (1 samples)
	maximum = 0.00975 (1 samples)
Injected flit rate average = 0.143406 (1 samples)
	minimum = 0.07025 (1 samples)
	maximum = 0.22 (1 samples)
Accepted flit rate average = 0.143238 (1 samples)
	minimum = 0.09 (1 samples)
	maximum = 0.194 (1 samples)
Injected packet size average = 19.9848 (1 samples)
Accepted packet size average = 19.9831 (1 samples)
Hops average = 6.28167 (1 samples)
Total run time 2.32817
